MODEL 1
REMARK VINA RESULT:      -0.0      0.000      0.000
REMARK  3 active torsions:
REMARK  status: ('A' for Active; 'I' for Inactive)
REMARK    1  A    between atoms: C_7  and  C_16 
REMARK    2  A    between atoms: C_7  and  C_10 
REMARK    3  A    between atoms: C_16  and  C_17 
ROOT
HETATM    1  O   LIG     1      86.186  82.845  88.980  1.00  0.00    -0.247 OA
HETATM    2  H   LIG     1      88.276  81.469  89.767  1.00  0.00     0.173 HD
HETATM    3  N   LIG     1      88.204  82.454  89.976  1.00  0.00    -0.277 N 
HETATM    4  N   LIG     1      87.427  84.464  90.016  1.00  0.00    -0.319 N 
HETATM    5  H   LIG     1      86.806  85.242  89.848  1.00  0.00     0.166 HD
HETATM    6  O   LIG     1      90.214  82.698  91.024  1.00  0.00    -0.270 OA
HETATM    7  C   LIG     1      88.671  84.597  90.770  1.00  0.00     0.161 A 
HETATM    8  C   LIG     1      89.139  83.143  90.623  1.00  0.00     0.260 A 
HETATM    9  C   LIG     1      87.177  83.216  89.603  1.00  0.00     0.324 A 
ENDROOT
BRANCH   7  10
HETATM   10  C   LIG     1      89.603  85.591  90.017  1.00  0.00     0.060 C 
BRANCH  10  11
HETATM   11  C   LIG     1      88.928  86.818  89.417  1.00  0.00    -0.019 A 
HETATM   12  C   LIG     1      88.512  87.877  90.252  1.00  0.00    -0.004 A 
HETATM   13  C   LIG     1      87.883  89.009  89.698  1.00  0.00    -0.000 A 
HETATM   14  C   LIG     1      87.673  89.090  88.308  1.00  0.00    -0.000 A 
HETATM   15  C   LIG     1      88.095  88.040  87.471  1.00  0.00    -0.000 A 
HETATM   16  C   LIG     1      88.725  86.908  88.024  1.00  0.00    -0.004 A 
ENDBRANCH  10  11
ENDBRANCH   7  10
BRANCH   7  17
HETATM   17  C   LIG     1      88.416  84.969  92.246  1.00  0.00     0.024 A 
HETATM   18  C   LIG     1      87.141  84.790  92.836  1.00  0.00     0.097 A 
HETATM   19  N   LIG     1      86.847  85.110  94.113  1.00  0.00    -0.243 NA
HETATM   20  C   LIG     1      87.826  85.638  94.874  1.00  0.00     0.099 A 
HETATM   21  C   LIG     1      89.127  85.874  94.398  1.00  0.00     0.020 A 
HETATM   22  C   LIG     1      89.424  85.536  93.064  1.00  0.00     0.001 A 
ENDBRANCH   7  17
TORSDOF 3
ENDMDL
MODEL 2
REMARK VINA RESULT:      -0.0      9.403     12.205
REMARK  3 active torsions:
REMARK  status: ('A' for Active; 'I' for Inactive)
REMARK    1  A    between atoms: C_7  and  C_16 
REMARK    2  A    between atoms: C_7  and  C_10 
REMARK    3  A    between atoms: C_16  and  C_17 
ROOT
HETATM    1  O   LIG     1      93.165  95.365  89.081  1.00  0.00    -0.247 OA
HETATM    2  H   LIG     1      94.233  96.585  87.019  1.00  0.00     0.173 HD
HETATM    3  N   LIG     1      93.266  96.297  86.999  1.00  0.00    -0.277 N 
HETATM    4  N   LIG     1      91.402  95.412  87.623  1.00  0.00    -0.319 N 
HETATM    5  H   LIG     1      90.731  94.928  88.203  1.00  0.00     0.166 HD
HETATM    6  O   LIG     1      92.786  96.971  84.874  1.00  0.00    -0.270 OA
HETATM    7  C   LIG     1      91.071  95.929  86.298  1.00  0.00     0.161 A 
HETATM    8  C   LIG     1      92.463  96.473  85.952  1.00  0.00     0.260 A 
HETATM    9  C   LIG     1      92.659  95.668  88.004  1.00  0.00     0.324 A 
ENDROOT
BRANCH   7  10
HETATM   10  C   LIG     1      90.666  94.735  85.387  1.00  0.00     0.060 C 
BRANCH  10  11
HETATM   11  C   LIG     1      89.801  93.661  86.034  1.00  0.00    -0.019 A 
HETATM   12  C   LIG     1      88.434  93.906  86.282  1.00  0.00    -0.004 A 
HETATM   13  C   LIG     1      87.635  92.915  86.887  1.00  0.00    -0.000 A 
HETATM   14  C   LIG     1      88.199  91.674  87.241  1.00  0.00    -0.000 A 
HETATM   15  C   LIG     1      89.560  91.423  86.987  1.00  0.00    -0.000 A 
HETATM   16  C   LIG     1      90.359  92.412  86.382  1.00  0.00    -0.004 A 
ENDBRANCH  10  11
ENDBRANCH   7  10
BRANCH   7  17
HETATM   17  C   LIG     1      90.018  97.056  86.364  1.00  0.00     0.024 A 
HETATM   18  C   LIG     1      89.749  97.737  87.576  1.00  0.00     0.097 A 
HETATM   19  N   LIG     1      88.832  98.718  87.706  1.00  0.00    -0.243 NA
HETATM   20  C   LIG     1      88.121  99.067  86.615  1.00  0.00     0.099 A 
HETATM   21  C   LIG     1      88.290  98.456  85.360  1.00  0.00     0.020 A 
HETATM   22  C   LIG     1      89.250  97.435  85.235  1.00  0.00     0.001 A 
ENDBRANCH   7  17
TORSDOF 3
ENDMDL
MODEL 3
REMARK VINA RESULT:       0.0      4.752      6.254
REMARK  3 active torsions:
REMARK  status: ('A' for Active; 'I' for Inactive)
REMARK    1  A    between atoms: C_7  and  C_16 
REMARK    2  A    between atoms: C_7  and  C_10 
REMARK    3  A    between atoms: C_16  and  C_17 
ROOT
HETATM    1  O   LIG     1      92.566  88.327  88.312  1.00  0.00    -0.247 OA
HETATM    2  H   LIG     1      92.960  87.712  90.832  1.00  0.00     0.173 HD
HETATM    3  N   LIG     1      92.308  88.440  90.579  1.00  0.00    -0.277 N 
HETATM    4  N   LIG     1      91.180  89.815  89.361  1.00  0.00    -0.319 N 
HETATM    5  H   LIG     1      90.835  90.286  88.537  1.00  0.00     0.166 HD
HETATM    6  O   LIG     1      91.708  89.067  92.687  1.00  0.00    -0.270 OA
HETATM    7  C   LIG     1      90.726  90.150  90.708  1.00  0.00     0.161 A 
HETATM    8  C   LIG     1      91.624  89.161  91.463  1.00  0.00     0.260 A 
HETATM    9  C   LIG     1      92.063  88.810  89.323  1.00  0.00     0.324 A 
ENDROOT
BRANCH   7  10
HETATM   10  C   LIG     1      91.106  91.630  91.005  1.00  0.00     0.060 C 
BRANCH  10  11
HETATM   11  C   LIG     1      90.914  92.614  89.859  1.00  0.00    -0.019 A 
HETATM   12  C   LIG     1      89.617  93.042  89.502  1.00  0.00    -0.004 A 
HETATM   13  C   LIG     1      89.438  93.947  88.438  1.00  0.00    -0.000 A 
HETATM   14  C   LIG     1      90.555  94.433  87.730  1.00  0.00    -0.000 A 
HETATM   15  C   LIG     1      91.850  94.016  88.089  1.00  0.00    -0.000 A 
HETATM   16  C   LIG     1      92.030  93.110  89.153  1.00  0.00    -0.004 A 
ENDBRANCH  10  11
ENDBRANCH   7  10
BRANCH   7  17
HETATM   17  C   LIG     1      89.230  89.832  90.911  1.00  0.00     0.024 A 
HETATM   18  C   LIG     1      88.540  88.962  90.030  1.00  0.00     0.097 A 
HETATM   19  N   LIG     1      87.231  88.656  90.140  1.00  0.00    -0.243 NA
HETATM   20  C   LIG     1      86.533  89.218  91.147  1.00  0.00     0.099 A 
HETATM   21  C   LIG     1      87.103  90.105  92.077  1.00  0.00     0.020 A 
HETATM   22  C   LIG     1      88.470  90.416  91.954  1.00  0.00     0.001 A 
ENDBRANCH   7  17
TORSDOF 3
ENDMDL
MODEL 4
REMARK VINA RESULT:       0.0      5.655      6.872
REMARK  3 active torsions:
REMARK  status: ('A' for Active; 'I' for Inactive)
REMARK    1  A    between atoms: C_7  and  C_16 
REMARK    2  A    between atoms: C_7  and  C_10 
REMARK    3  A    between atoms: C_16  and  C_17 
ROOT
HETATM    1  O   LIG     1      92.763  85.644  85.895  1.00  0.00    -0.247 OA
HETATM    2  H   LIG     1      91.073  84.053  87.117  1.00  0.00     0.173 HD
HETATM    3  N   LIG     1      91.825  84.491  87.629  1.00  0.00    -0.277 N 
HETATM    4  N   LIG     1      93.584  85.670  88.031  1.00  0.00    -0.319 N 
HETATM    5  H   LIG     1      94.373  86.278  87.868  1.00  0.00     0.166 HD
HETATM    6  O   LIG     1      91.409  83.545  89.661  1.00  0.00    -0.270 OA
HETATM    7  C   LIG     1      93.259  85.137  89.351  1.00  0.00     0.161 A 
HETATM    8  C   LIG     1      92.050  84.294  88.925  1.00  0.00     0.260 A 
HETATM    9  C   LIG     1      92.723  85.303  87.074  1.00  0.00     0.324 A 
ENDROOT
BRANCH   7  10
HETATM   10  C   LIG     1      94.446  84.255  89.836  1.00  0.00     0.060 C 
BRANCH  10  11
HETATM   11  C   LIG     1      95.841  84.790  89.541  1.00  0.00    -0.019 A 
HETATM   12  C   LIG     1      96.362  85.864  90.293  1.00  0.00    -0.004 A 
HETATM   13  C   LIG     1      97.651  86.363  90.016  1.00  0.00    -0.000 A 
HETATM   14  C   LIG     1      98.425  85.785  88.992  1.00  0.00    -0.000 A 
HETATM   15  C   LIG     1      97.913  84.707  88.246  1.00  0.00    -0.000 A 
HETATM   16  C   LIG     1      96.625  84.208  88.522  1.00  0.00    -0.004 A 
ENDBRANCH  10  11
ENDBRANCH   7  10
BRANCH   7  17
HETATM   17  C   LIG     1      92.857  86.251  90.341  1.00  0.00     0.024 A 
HETATM   18  C   LIG     1      92.473  87.535  89.883  1.00  0.00     0.097 A 
HETATM   19  N   LIG     1      92.128  88.556  90.694  1.00  0.00    -0.243 NA
HETATM   20  C   LIG     1      92.155  88.344  92.025  1.00  0.00     0.099 A 
HETATM   21  C   LIG     1      92.530  87.117  92.600  1.00  0.00     0.020 A 
HETATM   22  C   LIG     1      92.887  86.058  91.745  1.00  0.00     0.001 A 
ENDBRANCH   7  17
TORSDOF 3
ENDMDL
MODEL 5
REMARK VINA RESULT:       0.0      8.519     10.729
REMARK  3 active torsions:
REMARK  status: ('A' for Active; 'I' for Inactive)
REMARK    1  A    between atoms: C_7  and  C_16 
REMARK    2  A    between atoms: C_7  and  C_10 
REMARK    3  A    between atoms: C_16  and  C_17 
ROOT
HETATM    1  O   LIG     1      83.089  88.770  95.318  1.00  0.00    -0.247 OA
HETATM    2  H   LIG     1      82.382  89.545  92.913  1.00  0.00     0.173 HD
HETATM    3  N   LIG     1      82.671  90.221  93.605  1.00  0.00    -0.277 N 
HETATM    4  N   LIG     1      83.321  91.040  95.489  1.00  0.00    -0.319 N 
HETATM    5  H   LIG     1      83.613  91.076  96.455  1.00  0.00     0.166 HD
HETATM    6  O   LIG     1      82.351  92.100  92.353  1.00  0.00    -0.270 OA
HETATM    7  C   LIG     1      83.206  92.234  94.656  1.00  0.00     0.161 A 
HETATM    8  C   LIG     1      82.696  91.534  93.389  1.00  0.00     0.260 A 
HETATM    9  C   LIG     1      83.036  89.903  94.845  1.00  0.00     0.324 A 
ENDROOT
BRANCH   7  10
HETATM   10  C   LIG     1      82.132  93.172  95.279  1.00  0.00     0.060 C 
BRANCH  10  11
HETATM   11  C   LIG     1      82.144  93.289  96.797  1.00  0.00    -0.019 A 
HETATM   12  C   LIG     1      83.145  94.045  97.442  1.00  0.00    -0.004 A 
HETATM   13  C   LIG     1      83.160  94.149  98.847  1.00  0.00    -0.000 A 
HETATM   14  C   LIG     1      82.171  93.501  99.613  1.00  0.00    -0.000 A 
HETATM   15  C   LIG     1      81.165  92.753  98.973  1.00  0.00    -0.000 A 
HETATM   16  C   LIG     1      81.149  92.650  97.568  1.00  0.00    -0.004 A 
ENDBRANCH  10  11
ENDBRANCH   7  10
BRANCH   7  17
HETATM   17  C   LIG     1      84.573  92.911  94.423  1.00  0.00     0.024 A 
HETATM   18  C   LIG     1      85.784  92.213  94.656  1.00  0.00     0.097 A 
HETATM   19  N   LIG     1      87.011  92.751  94.489  1.00  0.00    -0.243 NA
HETATM   20  C   LIG     1      87.089  94.033  94.082  1.00  0.00     0.099 A 
HETATM   21  C   LIG     1      85.959  94.830  93.830  1.00  0.00     0.020 A 
HETATM   22  C   LIG     1      84.684  94.260  94.006  1.00  0.00     0.001 A 
ENDBRANCH   7  17
TORSDOF 3
ENDMDL
MODEL 6
REMARK VINA RESULT:       0.0      4.981      8.064
REMARK  3 active torsions:
REMARK  status: ('A' for Active; 'I' for Inactive)
REMARK    1  A    between atoms: C_7  and  C_16 
REMARK    2  A    between atoms: C_7  and  C_10 
REMARK    3  A    between atoms: C_16  and  C_17 
ROOT
HETATM    1  O   LIG     1      89.341  87.954  89.688  1.00  0.00    -0.247 OA
HETATM    2  H   LIG     1      86.910  88.515  88.877  1.00  0.00     0.173 HD
HETATM    3  N   LIG     1      87.710  88.943  88.433  1.00  0.00    -0.277 N 
HETATM    4  N   LIG     1      89.761  89.464  88.022  1.00  0.00    -0.319 N 
HETATM    5  H   LIG     1      90.767  89.483  88.103  1.00  0.00     0.166 HD
HETATM    6  O   LIG     1      86.577  90.264  86.960  1.00  0.00    -0.270 OA
HETATM    7  C   LIG     1      89.037  90.237  87.016  1.00  0.00     0.161 A 
HETATM    8  C   LIG     1      87.621  89.828  87.444  1.00  0.00     0.260 A 
HETATM    9  C   LIG     1      88.971  88.711  88.796  1.00  0.00     0.324 A 
ENDROOT
BRANCH   7  10
HETATM   10  C   LIG     1      89.308  91.750  87.263  1.00  0.00     0.060 C 
BRANCH  10  11
HETATM   11  C   LIG     1      90.736  92.120  87.642  1.00  0.00    -0.019 A 
HETATM   12  C   LIG     1      91.751  92.122  86.662  1.00  0.00    -0.004 A 
HETATM   13  C   LIG     1      93.074  92.459  87.013  1.00  0.00    -0.000 A 
HETATM   14  C   LIG     1      93.385  92.802  88.343  1.00  0.00    -0.000 A 
HETATM   15  C   LIG     1      92.373  92.811  89.321  1.00  0.00    -0.000 A 
HETATM   16  C   LIG     1      91.050  92.475  88.971  1.00  0.00    -0.004 A 
ENDBRANCH  10  11
ENDBRANCH   7  10
BRANCH   7  17
HETATM   17  C   LIG     1      89.359  89.766  85.582  1.00  0.00     0.024 A 
HETATM   18  C   LIG     1      89.951  88.502  85.342  1.00  0.00     0.097 A 
HETATM   19  N   LIG     1      90.273  88.037  84.117  1.00  0.00    -0.243 NA
HETATM   20  C   LIG     1      90.022  88.828  83.055  1.00  0.00     0.099 A 
HETATM   21  C   LIG     1      89.448  90.107  83.167  1.00  0.00     0.020 A 
HETATM   22  C   LIG     1      89.115  90.581  84.449  1.00  0.00     0.001 A 
ENDBRANCH   7  17
TORSDOF 3
ENDMDL
MODEL 7
REMARK VINA RESULT:       0.0      5.092      6.688
REMARK  3 active torsions:
REMARK  status: ('A' for Active; 'I' for Inactive)
REMARK    1  A    between atoms: C_7  and  C_16 
REMARK    2  A    between atoms: C_7  and  C_10 
REMARK    3  A    between atoms: C_16  and  C_17 
ROOT
HETATM    1  O   LIG     1      88.128  91.756  95.793  1.00  0.00    -0.247 OA
HETATM    2  H   LIG     1      89.378  90.169  97.467  1.00  0.00     0.173 HD
HETATM    3  N   LIG     1      89.443  90.016  96.471  1.00  0.00    -0.277 N 
HETATM    4  N   LIG     1      89.109  90.270  94.357  1.00  0.00    -0.319 N 
HETATM    5  H   LIG     1      88.753  90.656  93.494  1.00  0.00     0.166 HD
HETATM    6  O   LIG     1      90.726  88.133  96.529  1.00  0.00    -0.270 OA
HETATM    7  C   LIG     1      90.008  89.120  94.393  1.00  0.00     0.161 A 
HETATM    8  C   LIG     1      90.121  89.014  95.919  1.00  0.00     0.260 A 
HETATM    9  C   LIG     1      88.831  90.776  95.564  1.00  0.00     0.324 A 
ENDROOT
BRANCH   7  10
HETATM   10  C   LIG     1      89.272  87.896  93.774  1.00  0.00     0.060 C 
BRANCH  10  11
HETATM   11  C   LIG     1      88.427  88.176  92.539  1.00  0.00    -0.019 A 
HETATM   12  C   LIG     1      89.048  88.404  91.292  1.00  0.00    -0.004 A 
HETATM   13  C   LIG     1      88.267  88.670  90.150  1.00  0.00    -0.000 A 
HETATM   14  C   LIG     1      86.863  88.703  90.249  1.00  0.00    -0.000 A 
HETATM   15  C   LIG     1      86.239  88.467  91.488  1.00  0.00    -0.000 A 
HETATM   16  C   LIG     1      87.019  88.200  92.630  1.00  0.00    -0.004 A 
ENDBRANCH  10  11
ENDBRANCH   7  10
BRANCH   7  17
HETATM   17  C   LIG     1      91.371  89.430  93.740  1.00  0.00     0.024 A 
HETATM   18  C   LIG     1      91.792  90.766  93.524  1.00  0.00     0.097 A 
HETATM   19  N   LIG     1      92.962  91.106  92.943  1.00  0.00    -0.243 NA
HETATM   20  C   LIG     1      93.779  90.113  92.537  1.00  0.00     0.099 A 
HETATM   21  C   LIG     1      93.466  88.750  92.687  1.00  0.00     0.020 A 
HETATM   22  C   LIG     1      92.244  88.407  93.294  1.00  0.00     0.001 A 
ENDBRANCH   7  17
TORSDOF 3
ENDMDL
MODEL 8
REMARK VINA RESULT:       0.0      6.478      8.834
REMARK  3 active torsions:
REMARK  status: ('A' for Active; 'I' for Inactive)
REMARK    1  A    between atoms: C_7  and  C_16 
REMARK    2  A    between atoms: C_7  and  C_10 
REMARK    3  A    between atoms: C_16  and  C_17 
ROOT
HETATM    1  O   LIG     1      92.918  91.160  82.375  1.00  0.00    -0.247 OA
HETATM    2  H   LIG     1      93.337  92.509  84.585  1.00  0.00     0.173 HD
HETATM    3  N   LIG     1      92.543  91.891  84.506  1.00  0.00    -0.277 N 
HETATM    4  N   LIG     1      91.132  90.506  83.647  1.00  0.00    -0.319 N 
HETATM    5  H   LIG     1      90.695  89.899  82.969  1.00  0.00     0.166 HD
HETATM    6  O   LIG     1      91.624  92.301  86.551  1.00  0.00    -0.270 OA
HETATM    7  C   LIG     1      90.598  90.698  84.992  1.00  0.00     0.161 A 
HETATM    8  C   LIG     1      91.639  91.721  85.467  1.00  0.00     0.260 A 
HETATM    9  C   LIG     1      92.263  91.181  83.414  1.00  0.00     0.324 A 
ENDROOT
BRANCH   7  10
HETATM   10  C   LIG     1      89.176  91.320  84.877  1.00  0.00     0.060 C 
BRANCH  10  11
HETATM   11  C   LIG     1      88.292  90.768  83.767  1.00  0.00    -0.019 A 
HETATM   12  C   LIG     1      87.699  89.495  83.900  1.00  0.00    -0.004 A 
HETATM   13  C   LIG     1      86.885  88.981  82.871  1.00  0.00    -0.000 A 
HETATM   14  C   LIG     1      86.656  89.741  81.708  1.00  0.00    -0.000 A 
HETATM   15  C   LIG     1      87.238  91.016  81.575  1.00  0.00    -0.000 A 
HETATM   16  C   LIG     1      88.052  91.530  82.604  1.00  0.00    -0.004 A 
ENDBRANCH  10  11
ENDBRANCH   7  10
BRANCH   7  17
HETATM   17  C   LIG     1      90.652  89.401  85.827  1.00  0.00     0.024 A 
HETATM   18  C   LIG     1      91.482  88.319  85.445  1.00  0.00     0.097 A 
HETATM   19  N   LIG     1      91.563  87.153  86.119  1.00  0.00    -0.243 NA
HETATM   20  C   LIG     1      90.801  87.005  87.221  1.00  0.00     0.099 A 
HETATM   21  C   LIG     1      89.929  88.003  87.692  1.00  0.00     0.020 A 
HETATM   22  C   LIG     1      89.853  89.216  86.982  1.00  0.00     0.001 A 
ENDBRANCH   7  17
TORSDOF 3
ENDMDL
MODEL 9
REMARK VINA RESULT:       0.0      5.877      6.420
REMARK  3 active torsions:
REMARK  status: ('A' for Active; 'I' for Inactive)
REMARK    1  A    between atoms: C_7  and  C_16 
REMARK    2  A    between atoms: C_7  and  C_10 
REMARK    3  A    between atoms: C_16  and  C_17 
ROOT
HETATM    1  O   LIG     1      91.860  85.949  86.804  1.00  0.00    -0.247 OA
HETATM    2  H   LIG     1      93.263  83.785  87.283  1.00  0.00     0.173 HD
HETATM    3  N   LIG     1      93.444  84.636  87.795  1.00  0.00    -0.277 N 
HETATM    4  N   LIG     1      93.297  86.693  88.421  1.00  0.00    -0.319 N 
HETATM    5  H   LIG     1      92.976  87.650  88.462  1.00  0.00     0.166 HD
HETATM    6  O   LIG     1      95.195  83.880  89.043  1.00  0.00    -0.270 OA
HETATM    7  C   LIG     1      94.356  86.180  89.287  1.00  0.00     0.161 A 
HETATM    8  C   LIG     1      94.397  84.757  88.715  1.00  0.00     0.260 A 
HETATM    9  C   LIG     1      92.777  85.773  87.601  1.00  0.00     0.324 A 
ENDROOT
BRANCH   7  10
HETATM   10  C   LIG     1      95.665  86.968  88.989  1.00  0.00     0.060 C 
BRANCH  10  11
HETATM   11  C   LIG     1      95.508  88.466  88.766  1.00  0.00    -0.019 A 
HETATM   12  C   LIG     1      95.267  89.325  89.859  1.00  0.00    -0.004 A 
HETATM   13  C   LIG     1      95.116  90.710  89.652  1.00  0.00    -0.000 A 
HETATM   14  C   LIG     1      95.212  91.244  88.353  1.00  0.00    -0.000 A 
HETATM   15  C   LIG     1      95.461  90.392  87.260  1.00  0.00    -0.000 A 
HETATM   16  C   LIG     1      95.613  89.007  87.466  1.00  0.00    -0.004 A 
ENDBRANCH  10  11
ENDBRANCH   7  10
BRANCH   7  17
HETATM   17  C   LIG     1      93.942  86.187  90.773  1.00  0.00     0.024 A 
HETATM   18  C   LIG     1      92.581  86.292  91.154  1.00  0.00     0.097 A 
HETATM   19  N   LIG     1      92.154  86.321  92.433  1.00  0.00    -0.243 NA
HETATM   20  C   LIG     1      93.079  86.251  93.411  1.00  0.00     0.099 A 
HETATM   21  C   LIG     1      94.459  86.156  93.158  1.00  0.00     0.020 A 
HETATM   22  C   LIG     1      94.894  86.126  91.820  1.00  0.00     0.001 A 
ENDBRANCH   7  17
TORSDOF 3
ENDMDL
