MODEL 1
REMARK VINA RESULT:      -0.0      0.000      0.000
REMARK  3 active torsions:
REMARK  status: ('A' for Active; 'I' for Inactive)
REMARK    1  A    between atoms: C_8  and  N_11 
REMARK    2  A    between atoms: N_11  and  C_13 
REMARK    3  A    between atoms: C_13  and  C_14 
ROOT
HETATM    1  N   LIG     1      87.266  87.471  86.893  1.00  0.00    -0.207 NA
HETATM    2  N   LIG     1      88.046  85.914  88.528  1.00  0.00    -0.203 NA
HETATM    3  N   LIG     1      90.305  85.067  88.199  1.00  0.00    -0.153 NA
HETATM    4  H   LIG     1      92.136  84.906  87.200  1.00  0.00     0.189 HD
HETATM    5  N   LIG     1      91.222  85.338  87.212  1.00  0.00    -0.273 N 
HETATM    6  C   LIG     1      89.226  85.817  87.881  1.00  0.00     0.187 A 
HETATM    7  C   LIG     1      89.465  86.547  86.718  1.00  0.00     0.090 A 
HETATM    8  C   LIG     1      88.439  87.395  86.227  1.00  0.00     0.143 A 
HETATM    9  C   LIG     1      90.747  86.242  86.282  1.00  0.00     0.097 A 
HETATM   10  C   LIG     1      87.134  86.732  87.998  1.00  0.00     0.202 A 
ENDROOT
BRANCH   8  11
HETATM   11  N   LIG     1      88.508  88.198  85.081  1.00  0.00    -0.353 N 
HETATM   12  H   LIG     1      89.240  88.891  85.032  1.00  0.00     0.162 HD
BRANCH  11  13
HETATM   13  C   LIG     1      87.807  87.877  83.849  1.00  0.00     0.151 C 
BRANCH  13  14
HETATM   14  C   LIG     1      88.135  86.508  83.348  1.00  0.00     0.100 A 
HETATM   15  C   LIG     1      87.397  85.365  83.208  1.00  0.00     0.024 A 
HETATM   16  C   LIG     1      88.279  84.377  82.688  1.00  0.00     0.029 A 
HETATM   17  C   LIG     1      89.492  84.989  82.552  1.00  0.00     0.122 A 
HETATM   18  O   LIG     1      89.423  86.288  82.955  1.00  0.00    -0.307 OA
ENDBRANCH  13  14
ENDBRANCH  11  13
ENDBRANCH   8  11
TORSDOF 3
ENDMDL
MODEL 2
REMARK VINA RESULT:      -0.0      5.990      7.520
REMARK  3 active torsions:
REMARK  status: ('A' for Active; 'I' for Inactive)
REMARK    1  A    between atoms: C_8  and  N_11 
REMARK    2  A    between atoms: N_11  and  C_13 
REMARK    3  A    between atoms: C_13  and  C_14 
ROOT
HETATM    1  N   LIG     1      87.141  84.890  91.871  1.00  0.00    -0.207 NA
HETATM    2  N   LIG     1      88.537  84.396  89.998  1.00  0.00    -0.203 NA
HETATM    3  N   LIG     1      90.789  85.319  90.076  1.00  0.00    -0.153 NA
HETATM    4  H   LIG     1      92.356  86.411  90.930  1.00  0.00     0.189 HD
HETATM    5  N   LIG     1      91.401  86.092  91.032  1.00  0.00    -0.273 N 
HETATM    6  C   LIG     1      89.546  85.098  90.556  1.00  0.00     0.187 A 
HETATM    7  C   LIG     1      89.383  85.719  91.794  1.00  0.00     0.090 A 
HETATM    8  C   LIG     1      88.134  85.597  92.455  1.00  0.00     0.143 A 
HETATM    9  C   LIG     1      90.573  86.361  92.105  1.00  0.00     0.097 A 
HETATM   10  C   LIG     1      87.395  84.333  90.684  1.00  0.00     0.202 A 
ENDROOT
BRANCH   8  11
HETATM   11  N   LIG     1      87.799  86.150  93.698  1.00  0.00    -0.353 N 
HETATM   12  H   LIG     1      88.359  85.891  94.498  1.00  0.00     0.162 HD
BRANCH  11  13
HETATM   13  C   LIG     1      86.921  87.298  93.841  1.00  0.00     0.151 C 
BRANCH  13  14
HETATM   14  C   LIG     1      87.384  88.471  93.040  1.00  0.00     0.100 A 
HETATM   15  C   LIG     1      86.863  89.126  91.958  1.00  0.00     0.024 A 
HETATM   16  C   LIG     1      87.780  90.164  91.634  1.00  0.00     0.029 A 
HETATM   17  C   LIG     1      88.797  90.064  92.540  1.00  0.00     0.122 A 
HETATM   18  O   LIG     1      88.574  89.034  93.401  1.00  0.00    -0.307 OA
ENDBRANCH  13  14
ENDBRANCH  11  13
ENDBRANCH   8  11
TORSDOF 3
ENDMDL
MODEL 3
REMARK VINA RESULT:      -0.0      6.030      7.843
REMARK  3 active torsions:
REMARK  status: ('A' for Active; 'I' for Inactive)
REMARK    1  A    between atoms: C_8  and  N_11 
REMARK    2  A    between atoms: N_11  and  C_13 
REMARK    3  A    between atoms: C_13  and  C_14 
ROOT
HETATM    1  N   LIG     1      88.657  82.785  94.384  1.00  0.00    -0.207 NA
HETATM    2  N   LIG     1      87.582  80.870  93.445  1.00  0.00    -0.203 NA
HETATM    3  N   LIG     1      88.318  80.222  91.217  1.00  0.00    -0.153 NA
HETATM    4  H   LIG     1      89.468  80.405  89.478  1.00  0.00     0.189 HD
HETATM    5  N   LIG     1      89.264  80.784  90.394  1.00  0.00    -0.273 N 
HETATM    6  C   LIG     1      88.330  80.991  92.328  1.00  0.00     0.187 A 
HETATM    7  C   LIG     1      89.268  82.014  92.204  1.00  0.00     0.090 A 
HETATM    8  C   LIG     1      89.421  82.928  93.279  1.00  0.00     0.143 A 
HETATM    9  C   LIG     1      89.872  81.887  90.961  1.00  0.00     0.097 A 
HETATM   10  C   LIG     1      87.787  81.773  94.407  1.00  0.00     0.202 A 
ENDROOT
BRANCH   8  11
HETATM   11  N   LIG     1      90.313  84.007  93.325  1.00  0.00    -0.353 N 
HETATM   12  H   LIG     1      91.299  83.812  93.221  1.00  0.00     0.162 HD
BRANCH  11  13
HETATM   13  C   LIG     1      89.888  85.390  93.189  1.00  0.00     0.151 C 
BRANCH  13  14
HETATM   14  C   LIG     1      89.106  85.624  91.938  1.00  0.00     0.100 A 
HETATM   15  C   LIG     1      87.802  85.962  91.702  1.00  0.00     0.024 A 
HETATM   16  C   LIG     1      87.650  86.022  90.289  1.00  0.00     0.029 A 
HETATM   17  C   LIG     1      88.872  85.712  89.765  1.00  0.00     0.122 A 
HETATM   18  O   LIG     1      89.770  85.461  90.756  1.00  0.00    -0.307 OA
ENDBRANCH  13  14
ENDBRANCH  11  13
ENDBRANCH   8  11
TORSDOF 3
ENDMDL
MODEL 4
REMARK VINA RESULT:      -0.0      4.694      5.736
REMARK  3 active torsions:
REMARK  status: ('A' for Active; 'I' for Inactive)
REMARK    1  A    between atoms: C_8  and  N_11 
REMARK    2  A    between atoms: N_11  and  C_13 
REMARK    3  A    between atoms: C_13  and  C_14 
ROOT
HETATM    1  N   LIG     1      91.892  90.657  88.110  1.00  0.00    -0.207 NA
HETATM    2  N   LIG     1      90.576  88.667  88.225  1.00  0.00    -0.203 NA
HETATM    3  N   LIG     1      90.281  87.464  86.128  1.00  0.00    -0.153 NA
HETATM    4  H   LIG     1      90.546  87.148  84.077  1.00  0.00     0.189 HD
HETATM    5  N   LIG     1      90.752  87.744  84.868  1.00  0.00    -0.273 N 
HETATM    6  C   LIG     1      90.754  88.466  86.902  1.00  0.00     0.187 A 
HETATM    7  C   LIG     1      91.510  89.356  86.141  1.00  0.00     0.090 A 
HETATM    8  C   LIG     1      92.089  90.479  86.786  1.00  0.00     0.143 A 
HETATM    9  C   LIG     1      91.511  88.897  84.830  1.00  0.00     0.097 A 
HETATM   10  C   LIG     1      91.152  89.749  88.753  1.00  0.00     0.202 A 
ENDROOT
BRANCH   8  11
HETATM   11  N   LIG     1      92.877  91.466  86.178  1.00  0.00    -0.353 N 
HETATM   12  H   LIG     1      93.722  91.175  85.709  1.00  0.00     0.162 HD
BRANCH  11  13
HETATM   13  C   LIG     1      92.390  92.808  85.909  1.00  0.00     0.151 C 
BRANCH  13  14
HETATM   14  C   LIG     1      91.132  92.807  85.103  1.00  0.00     0.100 A 
HETATM   15  C   LIG     1      89.846  93.182  85.381  1.00  0.00     0.024 A 
HETATM   16  C   LIG     1      89.089  92.925  84.205  1.00  0.00     0.029 A 
HETATM   17  C   LIG     1      89.967  92.407  83.296  1.00  0.00     0.122 A 
HETATM   18  O   LIG     1      91.216  92.323  83.829  1.00  0.00    -0.307 OA
ENDBRANCH  13  14
ENDBRANCH  11  13
ENDBRANCH   8  11
TORSDOF 3
ENDMDL
MODEL 5
REMARK VINA RESULT:      -0.0      5.441      7.192
REMARK  3 active torsions:
REMARK  status: ('A' for Active; 'I' for Inactive)
REMARK    1  A    between atoms: C_8  and  N_11 
REMARK    2  A    between atoms: N_11  and  C_13 
REMARK    3  A    between atoms: C_13  and  C_14 
ROOT
HETATM    1  N   LIG     1      87.346  83.016  90.709  1.00  0.00    -0.207 NA
HETATM    2  N   LIG     1      85.487  83.723  92.032  1.00  0.00    -0.203 NA
HETATM    3  N   LIG     1      85.068  86.121  92.084  1.00  0.00    -0.153 NA
HETATM    4  H   LIG     1      85.446  88.117  91.582  1.00  0.00     0.189 HD
HETATM    5  N   LIG     1      85.734  87.154  91.469  1.00  0.00    -0.273 N 
HETATM    6  C   LIG     1      85.733  85.009  91.702  1.00  0.00     0.187 A 
HETATM    7  C   LIG     1      86.795  85.338  90.862  1.00  0.00     0.090 A 
HETATM    8  C   LIG     1      87.613  84.294  90.360  1.00  0.00     0.143 A 
HETATM    9  C   LIG     1      86.802  86.718  90.709  1.00  0.00     0.097 A 
HETATM   10  C   LIG     1      86.306  82.802  91.520  1.00  0.00     0.202 A 
ENDROOT
BRANCH   8  11
HETATM   11  N   LIG     1      88.714  84.443  89.506  1.00  0.00    -0.353 N 
HETATM   12  H   LIG     1      88.563  84.888  88.612  1.00  0.00     0.162 HD
BRANCH  11  13
HETATM   13  C   LIG     1      90.088  84.296  89.956  1.00  0.00     0.151 C 
BRANCH  13  14
HETATM   14  C   LIG     1      90.406  85.187  91.112  1.00  0.00     0.100 A 
HETATM   15  C   LIG     1      90.719  84.941  92.421  1.00  0.00     0.024 A 
HETATM   16  C   LIG     1      90.901  86.210  93.037  1.00  0.00     0.029 A 
HETATM   17  C   LIG     1      90.682  87.138  92.060  1.00  0.00     0.122 A 
HETATM   18  O   LIG     1      90.374  86.532  90.881  1.00  0.00    -0.307 OA
ENDBRANCH  13  14
ENDBRANCH  11  13
ENDBRANCH   8  11
TORSDOF 3
ENDMDL
MODEL 6
REMARK VINA RESULT:      -0.0      6.469      7.622
REMARK  3 active torsions:
REMARK  status: ('A' for Active; 'I' for Inactive)
REMARK    1  A    between atoms: C_8  and  N_11 
REMARK    2  A    between atoms: N_11  and  C_13 
REMARK    3  A    between atoms: C_13  and  C_14 
ROOT
HETATM    1  N   LIG     1      92.195  90.192  87.263  1.00  0.00    -0.207 NA
HETATM    2  N   LIG     1      93.078  88.475  85.857  1.00  0.00    -0.203 NA
HETATM    3  N   LIG     1      95.147  89.013  84.691  1.00  0.00    -0.153 NA
HETATM    4  H   LIG     1      96.752  90.246  84.162  1.00  0.00     0.189 HD
HETATM    5  N   LIG     1      95.904  90.160  84.706  1.00  0.00    -0.273 N 
HETATM    6  C   LIG     1      94.114  89.273  85.523  1.00  0.00     0.187 A 
HETATM    7  C   LIG     1      94.223  90.559  86.051  1.00  0.00     0.090 A 
HETATM    8  C   LIG     1      93.222  91.011  86.947  1.00  0.00     0.143 A 
HETATM    9  C   LIG     1      95.373  91.135  85.527  1.00  0.00     0.097 A 
HETATM   10  C   LIG     1      92.179  88.978  86.705  1.00  0.00     0.202 A 
ENDROOT
BRANCH   8  11
HETATM   11  N   LIG     1      93.176  92.265  87.571  1.00  0.00    -0.353 N 
HETATM   12  H   LIG     1      93.958  92.534  88.152  1.00  0.00     0.162 HD
BRANCH  11  13
HETATM   13  C   LIG     1      92.245  93.309  87.178  1.00  0.00     0.151 C 
BRANCH  13  14
HETATM   14  C   LIG     1      92.337  93.634  85.723  1.00  0.00     0.100 A 
HETATM   15  C   LIG     1      91.471  93.478  84.675  1.00  0.00     0.024 A 
HETATM   16  C   LIG     1      92.143  93.968  83.521  1.00  0.00     0.029 A 
HETATM   17  C   LIG     1      93.371  94.384  83.947  1.00  0.00     0.122 A 
HETATM   18  O   LIG     1      93.509  94.183  85.286  1.00  0.00    -0.307 OA
ENDBRANCH  13  14
ENDBRANCH  11  13
ENDBRANCH   8  11
TORSDOF 3
ENDMDL
MODEL 7
REMARK VINA RESULT:       0.0      6.848      9.495
REMARK  3 active torsions:
REMARK  status: ('A' for Active; 'I' for Inactive)
REMARK    1  A    between atoms: C_8  and  N_11 
REMARK    2  A    between atoms: N_11  and  C_13 
REMARK    3  A    between atoms: C_13  and  C_14 
ROOT
HETATM    1  N   LIG     1      89.921  86.464  93.473  1.00  0.00    -0.207 NA
HETATM    2  N   LIG     1      89.417  86.022  91.181  1.00  0.00    -0.203 NA
HETATM    3  N   LIG     1      87.070  85.628  90.665  1.00  0.00    -0.153 NA
HETATM    4  H   LIG     1      85.040  85.433  91.129  1.00  0.00     0.189 HD
HETATM    5  N   LIG     1      85.968  85.616  91.485  1.00  0.00    -0.273 N 
HETATM    6  C   LIG     1      88.107  85.901  91.486  1.00  0.00     0.187 A 
HETATM    7  C   LIG     1      87.663  86.060  92.797  1.00  0.00     0.090 A 
HETATM    8  C   LIG     1      88.617  86.352  93.806  1.00  0.00     0.143 A 
HETATM    9  C   LIG     1      86.287  85.876  92.804  1.00  0.00     0.097 A 
HETATM   10  C   LIG     1      90.248  86.294  92.188  1.00  0.00     0.202 A 
ENDROOT
BRANCH   8  11
HETATM   11  N   LIG     1      88.348  86.546  95.168  1.00  0.00    -0.353 N 
HETATM   12  H   LIG     1      87.706  87.282  95.423  1.00  0.00     0.162 HD
BRANCH  11  13
HETATM   13  C   LIG     1      88.675  85.561  96.185  1.00  0.00     0.151 C 
BRANCH  13  14
HETATM   14  C   LIG     1      88.087  84.220  95.889  1.00  0.00     0.100 A 
HETATM   15  C   LIG     1      88.638  83.008  95.576  1.00  0.00     0.024 A 
HETATM   16  C   LIG     1      87.553  82.108  95.389  1.00  0.00     0.029 A 
HETATM   17  C   LIG     1      86.418  82.837  95.597  1.00  0.00     0.122 A 
HETATM   18  O   LIG     1      86.724  84.129  95.899  1.00  0.00    -0.307 OA
ENDBRANCH  13  14
ENDBRANCH  11  13
ENDBRANCH   8  11
TORSDOF 3
ENDMDL
MODEL 8
REMARK VINA RESULT:       0.0      7.759     10.520
REMARK  3 active torsions:
REMARK  status: ('A' for Active; 'I' for Inactive)
REMARK    1  A    between atoms: C_8  and  N_11 
REMARK    2  A    between atoms: N_11  and  C_13 
REMARK    3  A    between atoms: C_13  and  C_14 
ROOT
HETATM    1  N   LIG     1      89.921  86.464  93.473  1.00  0.00    -0.207 NA
HETATM    2  N   LIG     1      88.309  85.725  91.873  1.00  0.00    -0.203 NA
HETATM    3  N   LIG     1      85.996  86.323  92.339  1.00  0.00    -0.153 NA
HETATM    4  H   LIG     1      84.458  87.200  93.454  1.00  0.00     0.189 HD
HETATM    5  N   LIG     1      85.452  87.026  93.387  1.00  0.00    -0.273 N 
HETATM    6  C   LIG     1      87.322  86.296  92.595  1.00  0.00     0.187 A 
HETATM    7  C   LIG     1      87.605  86.973  93.780  1.00  0.00     0.090 A 
HETATM    8  C   LIG     1      88.954  87.048  94.213  1.00  0.00     0.143 A 
HETATM    9  C   LIG     1      86.405  87.443  94.296  1.00  0.00     0.097 A 
HETATM   10  C   LIG     1      89.550  85.840  92.352  1.00  0.00     0.202 A 
ENDROOT
BRANCH   8  11
HETATM   11  N   LIG     1      89.416  87.687  95.372  1.00  0.00    -0.353 N 
HETATM   12  H   LIG     1      89.223  88.673  95.477  1.00  0.00     0.162 HD
BRANCH  11  13
HETATM   13  C   LIG     1      89.857  86.962  96.551  1.00  0.00     0.151 C 
BRANCH  13  14
HETATM   14  C   LIG     1      88.822  86.010  97.054  1.00  0.00     0.100 A 
HETATM   15  C   LIG     1      88.767  84.645  97.130  1.00  0.00     0.024 A 
HETATM   16  C   LIG     1      87.501  84.323  97.694  1.00  0.00     0.029 A 
HETATM   17  C   LIG     1      86.874  85.515  97.918  1.00  0.00     0.122 A 
HETATM   18  O   LIG     1      87.663  86.554  97.529  1.00  0.00    -0.307 OA
ENDBRANCH  13  14
ENDBRANCH  11  13
ENDBRANCH   8  11
TORSDOF 3
ENDMDL
MODEL 9
REMARK VINA RESULT:       0.0      8.533      9.787
REMARK  3 active torsions:
REMARK  status: ('A' for Active; 'I' for Inactive)
REMARK    1  A    between atoms: C_8  and  N_11 
REMARK    2  A    between atoms: N_11  and  C_13 
REMARK    3  A    between atoms: C_13  and  C_14 
ROOT
HETATM    1  N   LIG     1      93.965  92.170  85.738  1.00  0.00    -0.207 NA
HETATM    2  N   LIG     1      94.118  89.866  86.348  1.00  0.00    -0.203 NA
HETATM    3  N   LIG     1      96.008  89.262  87.759  1.00  0.00    -0.153 NA
HETATM    4  H   LIG     1      97.751  89.647  88.849  1.00  0.00     0.189 HD
HETATM    5  N   LIG     1      97.020  90.038  88.271  1.00  0.00    -0.273 N 
HETATM    6  C   LIG     1      95.240  90.121  87.053  1.00  0.00     0.187 A 
HETATM    7  C   LIG     1      95.760  91.412  87.124  1.00  0.00     0.090 A 
HETATM    8  C   LIG     1      95.084  92.454  86.438  1.00  0.00     0.143 A 
HETATM    9  C   LIG     1      96.906  91.365  87.905  1.00  0.00     0.097 A 
HETATM   10  C   LIG     1      93.546  90.902  85.731  1.00  0.00     0.202 A 
ENDROOT
BRANCH   8  11
HETATM   11  N   LIG     1      95.463  93.803  86.405  1.00  0.00    -0.353 N 
HETATM   12  H   LIG     1      95.538  94.296  87.283  1.00  0.00     0.162 HD
BRANCH  11  13
HETATM   13  C   LIG     1      96.056  94.428  85.235  1.00  0.00     0.151 C 
BRANCH  13  14
HETATM   14  C   LIG     1      97.272  93.702  84.758  1.00  0.00     0.100 A 
HETATM   15  C   LIG     1      97.549  92.995  83.620  1.00  0.00     0.024 A 
HETATM   16  C   LIG     1      98.884  92.523  83.754  1.00  0.00     0.029 A 
HETATM   17  C   LIG     1      99.323  92.972  84.967  1.00  0.00     0.122 A 
HETATM   18  O   LIG     1      98.351  93.688  85.594  1.00  0.00    -0.307 OA
ENDBRANCH  13  14
ENDBRANCH  11  13
ENDBRANCH   8  11
TORSDOF 3
ENDMDL
