MODEL 1
REMARK VINA RESULT:       0.0      0.000      0.000
REMARK  3 active torsions:
REMARK  status: ('A' for Active; 'I' for Inactive)
REMARK    1  A    between atoms: C_7  and  N_11 
REMARK    2  A    between atoms: N_11  and  C_13 
REMARK    3  A    between atoms: C_13  and  C_14 
ROOT
HETATM    1  N   LIG     1      88.921  94.423  90.673  1.00  0.00    -0.207 NA
HETATM    2  N   LIG     1      89.285  95.650  88.633  1.00  0.00    -0.205 NA
HETATM    3  N   LIG     1      88.442  94.406  86.662  1.00  0.00    -0.232 N 
HETATM    4  N   LIG     1      87.825  93.223  86.400  1.00  0.00    -0.166 NA
HETATM    5  C   LIG     1      88.691  94.591  88.013  1.00  0.00     0.166 A 
HETATM    6  C   LIG     1      88.188  93.419  88.638  1.00  0.00     0.090 A 
HETATM    7  C   LIG     1      88.333  93.375  90.052  1.00  0.00     0.143 A 
HETATM    8  C   LIG     1      87.671  92.628  87.560  1.00  0.00     0.126 A 
HETATM    9  C   LIG     1      89.349  95.464  89.954  1.00  0.00     0.202 A 
HETATM   10  C   LIG     1      88.743  95.290  85.555  1.00  0.00     0.156 C 
ENDROOT
BRANCH   7  11
HETATM   11  N   LIG     1      87.919  92.334  90.890  1.00  0.00    -0.355 N 
HETATM   12  H   LIG     1      88.558  91.580  91.097  1.00  0.00     0.162 HD
BRANCH  11  13
HETATM   13  C   LIG     1      86.616  92.347  91.532  1.00  0.00     0.126 C 
BRANCH  13  14
HETATM   14  C   LIG     1      85.470  92.110  90.568  1.00  0.00    -0.000 A 
HETATM   15  C   LIG     1      85.319  90.855  89.940  1.00  0.00    -0.002 A 
HETATM   16  C   LIG     1      84.256  90.635  89.041  1.00  0.00    -0.000 A 
HETATM   17  C   LIG     1      83.344  91.672  88.764  1.00  0.00    -0.000 A 
HETATM   18  C   LIG     1      83.493  92.926  89.385  1.00  0.00    -0.000 A 
HETATM   19  C   LIG     1      84.556  93.146  90.285  1.00  0.00    -0.002 A 
ENDBRANCH  13  14
ENDBRANCH  11  13
ENDBRANCH   7  11
TORSDOF 3
ENDMDL
MODEL 2
REMARK VINA RESULT:       0.0      8.288      9.722
REMARK  3 active torsions:
REMARK  status: ('A' for Active; 'I' for Inactive)
REMARK    1  A    between atoms: C_7  and  N_11 
REMARK    2  A    between atoms: N_11  and  C_13 
REMARK    3  A    between atoms: C_13  and  C_14 
ROOT
HETATM    1  N   LIG     1      92.725  85.603  84.705  1.00  0.00    -0.207 NA
HETATM    2  N   LIG     1      90.647  86.478  83.856  1.00  0.00    -0.205 NA
HETATM    3  N   LIG     1      88.766  86.010  85.401  1.00  0.00    -0.232 N 
HETATM    4  N   LIG     1      88.569  85.401  86.600  1.00  0.00    -0.166 NA
HETATM    5  C   LIG     1      90.090  85.970  84.992  1.00  0.00     0.166 A 
HETATM    6  C   LIG     1      90.768  85.273  86.027  1.00  0.00     0.090 A 
HETATM    7  C   LIG     1      92.166  85.102  85.830  1.00  0.00     0.143 A 
HETATM    8  C   LIG     1      89.744  84.959  86.981  1.00  0.00     0.126 A 
HETATM    9  C   LIG     1      91.960  86.240  83.813  1.00  0.00     0.202 A 
HETATM   10  C   LIG     1      87.627  86.604  84.730  1.00  0.00     0.156 C 
ENDROOT
BRANCH   7  11
HETATM   11  N   LIG     1      93.047  84.453  86.703  1.00  0.00    -0.355 N 
HETATM   12  H   LIG     1      93.210  83.463  86.596  1.00  0.00     0.162 HD
BRANCH  11  13
HETATM   13  C   LIG     1      93.792  85.184  87.713  1.00  0.00     0.126 C 
BRANCH  13  14
HETATM   14  C   LIG     1      92.927  85.679  88.855  1.00  0.00    -0.000 A 
HETATM   15  C   LIG     1      92.328  84.759  89.743  1.00  0.00    -0.002 A 
HETATM   16  C   LIG     1      91.521  85.219  90.802  1.00  0.00    -0.000 A 
HETATM   17  C   LIG     1      91.307  86.600  90.975  1.00  0.00    -0.000 A 
HETATM   18  C   LIG     1      91.899  87.521  90.090  1.00  0.00    -0.000 A 
HETATM   19  C   LIG     1      92.707  87.061  89.031  1.00  0.00    -0.002 A 
ENDBRANCH  13  14
ENDBRANCH  11  13
ENDBRANCH   7  11
TORSDOF 3
ENDMDL
MODEL 3
REMARK VINA RESULT:       0.0      5.428      7.489
REMARK  3 active torsions:
REMARK  status: ('A' for Active; 'I' for Inactive)
REMARK    1  A    between atoms: C_7  and  N_11 
REMARK    2  A    between atoms: N_11  and  C_13 
REMARK    3  A    between atoms: C_13  and  C_14 
ROOT
HETATM    1  N   LIG     1      89.435  91.154  87.176  1.00  0.00    -0.207 NA
HETATM    2  N   LIG     1      89.866  91.344  89.538  1.00  0.00    -0.205 NA
HETATM    3  N   LIG     1      89.767  89.135  90.659  1.00  0.00    -0.232 N 
HETATM    4  N   LIG     1      89.542  87.838  90.321  1.00  0.00    -0.166 NA
HETATM    5  C   LIG     1      89.694  89.991  89.571  1.00  0.00     0.166 A 
HETATM    6  C   LIG     1      89.394  89.150  88.467  1.00  0.00     0.090 A 
HETATM    7  C   LIG     1      89.267  89.812  87.216  1.00  0.00     0.143 A 
HETATM    8  C   LIG     1      89.319  87.832  89.028  1.00  0.00     0.126 A 
HETATM    9  C   LIG     1      89.716  91.820  88.300  1.00  0.00     0.202 A 
HETATM   10  C   LIG     1      90.049  89.451  92.045  1.00  0.00     0.156 C 
ENDROOT
BRANCH   7  11
HETATM   11  N   LIG     1      88.977  89.205  85.989  1.00  0.00    -0.355 N 
HETATM   12  H   LIG     1      88.014  89.106  85.700  1.00  0.00     0.162 HD
BRANCH  11  13
HETATM   13  C   LIG     1      90.030  88.781  85.083  1.00  0.00     0.126 C 
BRANCH  13  14
HETATM   14  C   LIG     1      90.791  87.566  85.576  1.00  0.00    -0.000 A 
HETATM   15  C   LIG     1      90.149  86.312  85.660  1.00  0.00    -0.002 A 
HETATM   16  C   LIG     1      90.855  85.183  86.122  1.00  0.00    -0.000 A 
HETATM   17  C   LIG     1      92.205  85.306  86.503  1.00  0.00    -0.000 A 
HETATM   18  C   LIG     1      92.848  86.555  86.424  1.00  0.00    -0.000 A 
HETATM   19  C   LIG     1      92.143  87.684  85.962  1.00  0.00    -0.002 A 
ENDBRANCH  13  14
ENDBRANCH  11  13
ENDBRANCH   7  11
TORSDOF 3
ENDMDL
MODEL 4
REMARK VINA RESULT:       0.0      7.000      8.350
REMARK  3 active torsions:
REMARK  status: ('A' for Active; 'I' for Inactive)
REMARK    1  A    between atoms: C_7  and  N_11 
REMARK    2  A    between atoms: N_11  and  C_13 
REMARK    3  A    between atoms: C_13  and  C_14 
ROOT
HETATM    1  N   LIG     1      94.432  86.477  90.415  1.00  0.00    -0.207 NA
HETATM    2  N   LIG     1      94.243  88.229  92.057  1.00  0.00    -0.205 NA
HETATM    3  N   LIG     1      93.374  90.323  91.054  1.00  0.00    -0.232 N 
HETATM    4  N   LIG     1      92.967  90.769  89.836  1.00  0.00    -0.166 NA
HETATM    5  C   LIG     1      93.781  88.998  91.030  1.00  0.00     0.166 A 
HETATM    6  C   LIG     1      93.613  88.592  89.680  1.00  0.00     0.090 A 
HETATM    7  C   LIG     1      93.972  87.245  89.401  1.00  0.00     0.143 A 
HETATM    8  C   LIG     1      93.104  89.756  89.013  1.00  0.00     0.126 A 
HETATM    9  C   LIG     1      94.538  86.995  91.642  1.00  0.00     0.202 A 
HETATM   10  C   LIG     1      93.331  91.238  92.176  1.00  0.00     0.156 C 
ENDROOT
BRANCH   7  11
HETATM   11  N   LIG     1      93.896  86.613  88.154  1.00  0.00    -0.355 N 
HETATM   12  H   LIG     1      94.693  86.643  87.535  1.00  0.00     0.162 HD
BRANCH  11  13
HETATM   13  C   LIG     1      92.725  85.850  87.758  1.00  0.00     0.126 C 
BRANCH  13  14
HETATM   14  C   LIG     1      91.517  86.718  87.462  1.00  0.00    -0.000 A 
HETATM   15  C   LIG     1      91.521  87.582  86.346  1.00  0.00    -0.002 A 
HETATM   16  C   LIG     1      90.400  88.391  86.072  1.00  0.00    -0.000 A 
HETATM   17  C   LIG     1      89.273  88.339  86.915  1.00  0.00    -0.000 A 
HETATM   18  C   LIG     1      89.267  87.481  88.031  1.00  0.00    -0.000 A 
HETATM   19  C   LIG     1      90.387  86.672  88.305  1.00  0.00    -0.002 A 
ENDBRANCH  13  14
ENDBRANCH  11  13
ENDBRANCH   7  11
TORSDOF 3
ENDMDL
MODEL 5
REMARK VINA RESULT:       0.0      2.643      4.665
REMARK  3 active torsions:
REMARK  status: ('A' for Active; 'I' for Inactive)
REMARK    1  A    between atoms: C_7  and  N_11 
REMARK    2  A    between atoms: N_11  and  C_13 
REMARK    3  A    between atoms: C_13  and  C_14 
ROOT
HETATM    1  N   LIG     1      85.806  94.381  89.917  1.00  0.00    -0.207 NA
HETATM    2  N   LIG     1      87.373  94.326  91.746  1.00  0.00    -0.205 NA
HETATM    3  N   LIG     1      88.063  92.006  92.279  1.00  0.00    -0.232 N 
HETATM    4  N   LIG     1      87.813  90.747  91.831  1.00  0.00    -0.166 NA
HETATM    5  C   LIG     1      87.364  92.973  91.575  1.00  0.00     0.166 A 
HETATM    6  C   LIG     1      86.615  92.248  90.610  1.00  0.00     0.090 A 
HETATM    7  C   LIG     1      85.802  93.039  89.752  1.00  0.00     0.143 A 
HETATM    8  C   LIG     1      86.957  90.875  90.845  1.00  0.00     0.126 A 
HETATM    9  C   LIG     1      86.564  94.929  90.872  1.00  0.00     0.202 A 
HETATM   10  C   LIG     1      88.989  92.178  93.381  1.00  0.00     0.156 C 
ENDROOT
BRANCH   7  11
HETATM   11  N   LIG     1      84.977  92.561  88.728  1.00  0.00    -0.355 N 
HETATM   12  H   LIG     1      84.017  92.326  88.934  1.00  0.00     0.162 HD
BRANCH  11  13
HETATM   13  C   LIG     1      85.446  92.464  87.357  1.00  0.00     0.126 C 
BRANCH  13  14
HETATM   14  C   LIG     1      86.457  91.353  87.147  1.00  0.00    -0.000 A 
HETATM   15  C   LIG     1      86.064  90.003  87.269  1.00  0.00    -0.002 A 
HETATM   16  C   LIG     1      87.004  88.971  87.077  1.00  0.00    -0.000 A 
HETATM   17  C   LIG     1      88.341  89.286  86.765  1.00  0.00    -0.000 A 
HETATM   18  C   LIG     1      88.738  90.632  86.645  1.00  0.00    -0.000 A 
HETATM   19  C   LIG     1      87.798  91.664  86.836  1.00  0.00    -0.002 A 
ENDBRANCH  13  14
ENDBRANCH  11  13
ENDBRANCH   7  11
TORSDOF 3
ENDMDL
MODEL 6
REMARK VINA RESULT:       0.0      5.889      7.771
REMARK  3 active torsions:
REMARK  status: ('A' for Active; 'I' for Inactive)
REMARK    1  A    between atoms: C_7  and  N_11 
REMARK    2  A    between atoms: N_11  and  C_13 
REMARK    3  A    between atoms: C_13  and  C_14 
ROOT
HETATM    1  N   LIG     1      91.244  88.792  90.089  1.00  0.00    -0.207 NA
HETATM    2  N   LIG     1      89.966  90.830  90.220  1.00  0.00    -0.205 NA
HETATM    3  N   LIG     1      88.159  90.661  91.908  1.00  0.00    -0.232 N 
HETATM    4  N   LIG     1      87.680  89.744  92.791  1.00  0.00    -0.166 NA
HETATM    5  C   LIG     1      89.240  90.189  91.181  1.00  0.00     0.166 A 
HETATM    6  C   LIG     1      89.445  88.866  91.652  1.00  0.00     0.090 A 
HETATM    7  C   LIG     1      90.521  88.163  91.043  1.00  0.00     0.143 A 
HETATM    8  C   LIG     1      88.431  88.677  92.649  1.00  0.00     0.126 A 
HETATM    9  C   LIG     1      90.936  90.046  89.744  1.00  0.00     0.202 A 
HETATM   10  C   LIG     1      87.517  91.958  91.842  1.00  0.00     0.156 C 
ENDROOT
BRANCH   7  11
HETATM   11  N   LIG     1      90.920  86.854  91.336  1.00  0.00    -0.355 N 
HETATM   12  H   LIG     1      90.515  86.086  90.820  1.00  0.00     0.162 HD
BRANCH  11  13
HETATM   13  C   LIG     1      91.959  86.576  92.312  1.00  0.00     0.126 C 
BRANCH  13  14
HETATM   14  C   LIG     1      91.521  86.828  93.741  1.00  0.00    -0.000 A 
HETATM   15  C   LIG     1      90.533  86.014  94.335  1.00  0.00    -0.002 A 
HETATM   16  C   LIG     1      90.123  86.250  95.662  1.00  0.00    -0.000 A 
HETATM   17  C   LIG     1      90.698  87.303  96.399  1.00  0.00    -0.000 A 
HETATM   18  C   LIG     1      91.682  88.120  95.810  1.00  0.00    -0.000 A 
HETATM   19  C   LIG     1      92.092  87.884  94.482  1.00  0.00    -0.002 A 
ENDBRANCH  13  14
ENDBRANCH  11  13
ENDBRANCH   7  11
TORSDOF 3
ENDMDL
MODEL 7
REMARK VINA RESULT:       0.0      7.826      9.437
REMARK  3 active torsions:
REMARK  status: ('A' for Active; 'I' for Inactive)
REMARK    1  A    between atoms: C_7  and  N_11 
REMARK    2  A    between atoms: N_11  and  C_13 
REMARK    3  A    between atoms: C_13  and  C_14 
ROOT
HETATM    1  N   LIG     1      94.254  94.488  92.106  1.00  0.00    -0.207 NA
HETATM    2  N   LIG     1      94.253  93.110  90.131  1.00  0.00    -0.205 NA
HETATM    3  N   LIG     1      95.494  90.996  90.499  1.00  0.00    -0.232 N 
HETATM    4  N   LIG     1      96.177  90.384  91.503  1.00  0.00    -0.166 NA
HETATM    5  C   LIG     1      94.984  92.230  90.872  1.00  0.00     0.166 A 
HETATM    6  C   LIG     1      95.391  92.395  92.223  1.00  0.00     0.090 A 
HETATM    7  C   LIG     1      94.979  93.610  92.836  1.00  0.00     0.143 A 
HETATM    8  C   LIG     1      96.125  91.202  92.528  1.00  0.00     0.126 A 
HETATM    9  C   LIG     1      93.943  94.198  90.839  1.00  0.00     0.202 A 
HETATM   10  C   LIG     1      95.381  90.316  89.224  1.00  0.00     0.156 C 
ENDROOT
BRANCH   7  11
HETATM   11  N   LIG     1      95.253  94.003  94.151  1.00  0.00    -0.355 N 
HETATM   12  H   LIG     1      96.091  94.532  94.346  1.00  0.00     0.162 HD
BRANCH  11  13
HETATM   13  C   LIG     1      94.324  93.733  95.235  1.00  0.00     0.126 C 
BRANCH  13  14
HETATM   14  C   LIG     1      94.262  92.268  95.619  1.00  0.00    -0.000 A 
HETATM   15  C   LIG     1      95.377  91.641  96.215  1.00  0.00    -0.002 A 
HETATM   16  C   LIG     1      95.321  90.279  96.569  1.00  0.00    -0.000 A 
HETATM   17  C   LIG     1      94.148  89.537  96.325  1.00  0.00    -0.000 A 
HETATM   18  C   LIG     1      93.034  90.157  95.728  1.00  0.00    -0.000 A 
HETATM   19  C   LIG     1      93.091  91.520  95.374  1.00  0.00    -0.002 A 
ENDBRANCH  13  14
ENDBRANCH  11  13
ENDBRANCH   7  11
TORSDOF 3
ENDMDL
MODEL 8
REMARK VINA RESULT:       0.0      3.452      5.605
REMARK  3 active torsions:
REMARK  status: ('A' for Active; 'I' for Inactive)
REMARK    1  A    between atoms: C_7  and  N_11 
REMARK    2  A    between atoms: N_11  and  C_13 
REMARK    3  A    between atoms: C_13  and  C_14 
ROOT
HETATM    1  N   LIG     1      89.011  92.350  92.156  1.00  0.00    -0.207 NA
HETATM    2  N   LIG     1      87.129  92.379  93.660  1.00  0.00    -0.205 NA
HETATM    3  N   LIG     1      85.138  91.310  92.642  1.00  0.00    -0.232 N 
HETATM    4  N   LIG     1      84.801  90.703  91.473  1.00  0.00    -0.166 NA
HETATM    5  C   LIG     1      86.455  91.741  92.661  1.00  0.00     0.166 A 
HETATM    6  C   LIG     1      86.975  91.372  91.392  1.00  0.00     0.090 A 
HETATM    7  C   LIG     1      88.337  91.716  91.170  1.00  0.00     0.143 A 
HETATM    8  C   LIG     1      85.878  90.735  90.724  1.00  0.00     0.126 A 
HETATM    9  C   LIG     1      88.391  92.636  93.305  1.00  0.00     0.202 A 
HETATM   10  C   LIG     1      84.132  91.422  93.679  1.00  0.00     0.156 C 
ENDROOT
BRANCH   7  11
HETATM   11  N   LIG     1      89.072  91.460  90.007  1.00  0.00    -0.355 N 
HETATM   12  H   LIG     1      89.084  92.148  89.268  1.00  0.00     0.162 HD
BRANCH  11  13
HETATM   13  C   LIG     1      89.880  90.261  89.866  1.00  0.00     0.126 C 
BRANCH  13  14
HETATM   14  C   LIG     1      89.056  89.000  89.698  1.00  0.00    -0.000 A 
HETATM   15  C   LIG     1      88.287  88.804  88.531  1.00  0.00    -0.002 A 
HETATM   16  C   LIG     1      87.518  87.633  88.376  1.00  0.00    -0.000 A 
HETATM   17  C   LIG     1      87.514  86.656  89.390  1.00  0.00    -0.000 A 
HETATM   18  C   LIG     1      88.276  86.849  90.557  1.00  0.00    -0.000 A 
HETATM   19  C   LIG     1      89.045  88.019  90.712  1.00  0.00    -0.002 A 
ENDBRANCH  13  14
ENDBRANCH  11  13
ENDBRANCH   7  11
TORSDOF 3
ENDMDL
MODEL 9
REMARK VINA RESULT:       0.0      3.611      5.668
REMARK  3 active torsions:
REMARK  status: ('A' for Active; 'I' for Inactive)
REMARK    1  A    between atoms: C_7  and  N_11 
REMARK    2  A    between atoms: N_11  and  C_13 
REMARK    3  A    between atoms: C_13  and  C_14 
ROOT
HETATM    1  N   LIG     1      92.199  93.024  92.352  1.00  0.00    -0.207 NA
HETATM    2  N   LIG     1      90.693  92.683  94.200  1.00  0.00    -0.205 NA
HETATM    3  N   LIG     1      88.325  92.811  93.476  1.00  0.00    -0.232 N 
HETATM    4  N   LIG     1      87.627  93.016  92.328  1.00  0.00    -0.166 NA
HETATM    5  C   LIG     1      89.697  92.848  93.283  1.00  0.00     0.166 A 
HETATM    6  C   LIG     1      89.861  93.102  91.895  1.00  0.00     0.090 A 
HETATM    7  C   LIG     1      91.207  93.187  91.447  1.00  0.00     0.143 A 
HETATM    8  C   LIG     1      88.523  93.191  91.385  1.00  0.00     0.126 A 
HETATM    9  C   LIG     1      91.896  92.790  93.632  1.00  0.00     0.202 A 
HETATM   10  C   LIG     1      87.588  92.583  94.703  1.00  0.00     0.156 C 
ENDROOT
BRANCH   7  11
HETATM   11  N   LIG     1      91.625  93.427  90.133  1.00  0.00    -0.355 N 
HETATM   12  H   LIG     1      91.773  94.377  89.827  1.00  0.00     0.162 HD
BRANCH  11  13
HETATM   13  C   LIG     1      91.923  92.338  89.219  1.00  0.00     0.126 C 
BRANCH  13  14
HETATM   14  C   LIG     1      90.688  91.589  88.757  1.00  0.00    -0.000 A 
HETATM   15  C   LIG     1      89.739  92.227  87.930  1.00  0.00    -0.002 A 
HETATM   16  C   LIG     1      88.590  91.532  87.503  1.00  0.00    -0.000 A 
HETATM   17  C   LIG     1      88.386  90.197  87.904  1.00  0.00    -0.000 A 
HETATM   18  C   LIG     1      89.328  89.559  88.732  1.00  0.00    -0.000 A 
HETATM   19  C   LIG     1      90.478  90.253  89.159  1.00  0.00    -0.002 A 
ENDBRANCH  13  14
ENDBRANCH  11  13
ENDBRANCH   7  11
TORSDOF 3
ENDMDL
