MODEL 1
REMARK VINA RESULT:      -0.0      0.000      0.000
REMARK  3 active torsions:
REMARK  status: ('A' for Active; 'I' for Inactive)
REMARK    1  A    between atoms: C_8  and  N_11 
REMARK    2  A    between atoms: N_11  and  C_13 
REMARK    3  A    between atoms: C_13  and  C_14 
ROOT
HETATM    1  N   LIG     1      91.701  95.338  87.377  1.00  0.00    -0.207 NA
HETATM    2  N   LIG     1      91.612  93.903  85.470  1.00  0.00    -0.203 NA
HETATM    3  N   LIG     1      93.707  93.601  84.267  1.00  0.00    -0.153 NA
HETATM    4  H   LIG     1      95.744  93.914  83.912  1.00  0.00     0.189 HD
HETATM    5  N   LIG     1      94.953  94.128  84.504  1.00  0.00    -0.273 N 
HETATM    6  C   LIG     1      92.928  94.106  85.248  1.00  0.00     0.187 A 
HETATM    7  C   LIG     1      93.673  94.932  86.088  1.00  0.00     0.090 A 
HETATM    8  C   LIG     1      93.020  95.556  87.181  1.00  0.00     0.143 A 
HETATM    9  C   LIG     1      94.978  94.952  85.613  1.00  0.00     0.097 A 
HETATM   10  C   LIG     1      91.074  94.530  86.518  1.00  0.00     0.202 A 
ENDROOT
BRANCH   8  11
HETATM   11  N   LIG     1      93.613  96.410  88.121  1.00  0.00    -0.353 N 
HETATM   12  H   LIG     1      94.389  96.054  88.660  1.00  0.00     0.162 HD
BRANCH  11  13
HETATM   13  C   LIG     1      93.394  97.846  88.131  1.00  0.00     0.151 C 
BRANCH  13  14
HETATM   14  C   LIG     1      93.715  98.481  86.817  1.00  0.00     0.100 A 
HETATM   15  C   LIG     1      92.950  99.106  85.871  1.00  0.00     0.024 A 
HETATM   16  C   LIG     1      93.834  99.485  84.823  1.00  0.00     0.029 A 
HETATM   17  C   LIG     1      95.074  99.060  85.204  1.00  0.00     0.122 A 
HETATM   18  O   LIG     1      95.019  98.441  86.416  1.00  0.00    -0.307 OA
ENDBRANCH  13  14
ENDBRANCH  11  13
ENDBRANCH   8  11
TORSDOF 3
ENDMDL
MODEL 2
REMARK VINA RESULT:      -0.0     13.826     15.800
REMARK  3 active torsions:
REMARK  status: ('A' for Active; 'I' for Inactive)
REMARK    1  A    between atoms: C_8  and  N_11 
REMARK    2  A    between atoms: N_11  and  C_13 
REMARK    3  A    between atoms: C_13  and  C_14 
ROOT
HETATM    1  N   LIG     1      91.701  84.425  96.625  1.00  0.00    -0.207 NA
HETATM    2  N   LIG     1      93.105  85.506  95.024  1.00  0.00    -0.203 NA
HETATM    3  N   LIG     1      91.968  86.513  93.121  1.00  0.00    -0.153 NA
HETATM    4  H   LIG     1      90.297  87.021  91.970  1.00  0.00     0.189 HD
HETATM    5  N   LIG     1      90.632  86.564  92.807  1.00  0.00    -0.273 N 
HETATM    6  C   LIG     1      92.022  85.834  94.288  1.00  0.00     0.187 A 
HETATM    7  C   LIG     1      90.742  85.468  94.700  1.00  0.00     0.090 A 
HETATM    8  C   LIG     1      90.600  84.742  95.910  1.00  0.00     0.143 A 
HETATM    9  C   LIG     1      89.842  85.934  93.750  1.00  0.00     0.097 A 
HETATM   10  C   LIG     1      92.884  84.820  96.147  1.00  0.00     0.202 A 
ENDROOT
BRANCH   8  11
HETATM   11  N   LIG     1      89.395  84.299  96.472  1.00  0.00    -0.353 N 
HETATM   12  H   LIG     1      88.691  84.991  96.688  1.00  0.00     0.162 HD
BRANCH  11  13
HETATM   13  C   LIG     1      88.982  82.906  96.457  1.00  0.00     0.151 C 
BRANCH  13  14
HETATM   14  C   LIG     1      88.968  82.332  95.078  1.00  0.00     0.100 A 
HETATM   15  C   LIG     1      89.711  81.361  94.464  1.00  0.00     0.024 A 
HETATM   16  C   LIG     1      89.233  81.273  93.127  1.00  0.00     0.029 A 
HETATM   17  C   LIG     1      88.236  82.199  93.021  1.00  0.00     0.122 A 
HETATM   18  O   LIG     1      88.064  82.858  94.200  1.00  0.00    -0.307 OA
ENDBRANCH  13  14
ENDBRANCH  11  13
ENDBRANCH   8  11
TORSDOF 3
ENDMDL
MODEL 3
REMARK VINA RESULT:       0.0      3.537      4.555
REMARK  3 active torsions:
REMARK  status: ('A' for Active; 'I' for Inactive)
REMARK    1  A    between atoms: C_8  and  N_11 
REMARK    2  A    between atoms: N_11  and  C_13 
REMARK    3  A    between atoms: C_13  and  C_14 
ROOT
HETATM    1  N   LIG     1      93.126  92.982  89.477  1.00  0.00    -0.207 NA
HETATM    2  N   LIG     1      93.145  90.814  88.476  1.00  0.00    -0.203 NA
HETATM    3  N   LIG     1      92.823  90.752  86.063  1.00  0.00    -0.153 NA
HETATM    4  H   LIG     1      92.504  91.598  84.177  1.00  0.00     0.189 HD
HETATM    5  N   LIG     1      92.627  91.773  85.165  1.00  0.00    -0.273 N 
HETATM    6  C   LIG     1      92.943  91.366  87.261  1.00  0.00     0.187 A 
HETATM    7  C   LIG     1      92.828  92.747  87.116  1.00  0.00     0.090 A 
HETATM    8  C   LIG     1      92.926  93.561  88.273  1.00  0.00     0.143 A 
HETATM    9  C   LIG     1      92.623  93.016  85.769  1.00  0.00     0.097 A 
HETATM   10  C   LIG     1      93.223  91.650  89.513  1.00  0.00     0.202 A 
ENDROOT
BRANCH   8  11
HETATM   11  N   LIG     1      92.837  94.960  88.310  1.00  0.00    -0.353 N 
HETATM   12  H   LIG     1      93.497  95.491  87.759  1.00  0.00     0.162 HD
BRANCH  11  13
HETATM   13  C   LIG     1      91.674  95.663  88.822  1.00  0.00     0.151 C 
BRANCH  13  14
HETATM   14  C   LIG     1      90.410  95.241  88.147  1.00  0.00     0.100 A 
HETATM   15  C   LIG     1      89.296  94.579  88.584  1.00  0.00     0.024 A 
HETATM   16  C   LIG     1      88.433  94.456  87.460  1.00  0.00     0.029 A 
HETATM   17  C   LIG     1      89.086  95.048  86.417  1.00  0.00     0.122 A 
HETATM   18  O   LIG     1      90.296  95.528  86.817  1.00  0.00    -0.307 OA
ENDBRANCH  13  14
ENDBRANCH  11  13
ENDBRANCH   8  11
TORSDOF 3
ENDMDL
MODEL 4
REMARK VINA RESULT:       0.0      7.479      9.484
REMARK  3 active torsions:
REMARK  status: ('A' for Active; 'I' for Inactive)
REMARK    1  A    between atoms: C_8  and  N_11 
REMARK    2  A    between atoms: N_11  and  C_13 
REMARK    3  A    between atoms: C_13  and  C_14 
ROOT
HETATM    1  N   LIG     1      96.805  90.026  87.923  1.00  0.00    -0.207 NA
HETATM    2  N   LIG     1      97.888  88.381  89.273  1.00  0.00    -0.203 NA
HETATM    3  N   LIG     1      98.363  86.255  88.185  1.00  0.00    -0.153 NA
HETATM    4  H   LIG     1      98.362  84.911  86.582  1.00  0.00     0.189 HD
HETATM    5  N   LIG     1      98.107  85.835  86.902  1.00  0.00    -0.273 N 
HETATM    6  C   LIG     1      97.888  87.519  88.235  1.00  0.00     0.187 A 
HETATM    7  C   LIG     1      97.346  87.886  87.004  1.00  0.00     0.090 A 
HETATM    8  C   LIG     1      96.794  89.185  86.866  1.00  0.00     0.143 A 
HETATM    9  C   LIG     1      97.483  86.806  86.142  1.00  0.00     0.097 A 
HETATM   10  C   LIG     1      97.347  89.582  89.060  1.00  0.00     0.202 A 
ENDROOT
BRANCH   8  11
HETATM   11  N   LIG     1      96.214  89.718  85.707  1.00  0.00    -0.353 N 
HETATM   12  H   LIG     1      96.780  89.762  84.871  1.00  0.00     0.162 HD
BRANCH  11  13
HETATM   13  C   LIG     1      94.781  89.902  85.554  1.00  0.00     0.151 C 
BRANCH  13  14
HETATM   14  C   LIG     1      94.016  88.640  85.791  1.00  0.00     0.100 A 
HETATM   15  C   LIG     1      93.128  88.255  86.758  1.00  0.00     0.024 A 
HETATM   16  C   LIG     1      92.752  86.919  86.450  1.00  0.00     0.029 A 
HETATM   17  C   LIG     1      93.441  86.584  85.320  1.00  0.00     0.122 A 
HETATM   18  O   LIG     1      94.221  87.620  84.907  1.00  0.00    -0.307 OA
ENDBRANCH  13  14
ENDBRANCH  11  13
ENDBRANCH   8  11
TORSDOF 3
ENDMDL
MODEL 5
REMARK VINA RESULT:       0.0     11.642     13.756
REMARK  3 active torsions:
REMARK  status: ('A' for Active; 'I' for Inactive)
REMARK    1  A    between atoms: C_8  and  N_11 
REMARK    2  A    between atoms: N_11  and  C_13 
REMARK    3  A    between atoms: C_13  and  C_14 
ROOT
HETATM    1  N   LIG     1      84.487  88.941  93.635  1.00  0.00    -0.207 NA
HETATM    2  N   LIG     1      82.613  87.531  94.082  1.00  0.00    -0.203 NA
HETATM    3  N   LIG     1      81.733  86.294  92.179  1.00  0.00    -0.153 NA
HETATM    4  H   LIG     1      81.674  85.703  90.172  1.00  0.00     0.189 HD
HETATM    5  N   LIG     1      82.141  86.271  90.867  1.00  0.00    -0.273 N 
HETATM    6  C   LIG     1      82.582  87.150  92.788  1.00  0.00     0.187 A 
HETATM    7  C   LIG     1      83.507  87.654  91.874  1.00  0.00     0.090 A 
HETATM    8  C   LIG     1      84.482  88.576  92.335  1.00  0.00     0.143 A 
HETATM    9  C   LIG     1      83.227  87.093  90.636  1.00  0.00     0.097 A 
HETATM   10  C   LIG     1      83.560  88.403  94.432  1.00  0.00     0.202 A 
ENDROOT
BRANCH   8  11
HETATM   11  N   LIG     1      85.483  89.175  91.559  1.00  0.00    -0.353 N 
HETATM   12  H   LIG     1      86.137  88.572  91.080  1.00  0.00     0.162 HD
BRANCH  11  13
HETATM   13  C   LIG     1      85.438  90.569  91.151  1.00  0.00     0.151 C 
BRANCH  13  14
HETATM   14  C   LIG     1      84.173  90.909  90.431  1.00  0.00     0.100 A 
HETATM   15  C   LIG     1      83.115  91.721  90.736  1.00  0.00     0.024 A 
HETATM   16  C   LIG     1      82.201  91.617  89.651  1.00  0.00     0.029 A 
HETATM   17  C   LIG     1      82.766  90.746  88.765  1.00  0.00     0.122 A 
HETATM   18  O   LIG     1      83.967  90.301  89.226  1.00  0.00    -0.307 OA
ENDBRANCH  13  14
ENDBRANCH  11  13
ENDBRANCH   8  11
TORSDOF 3
ENDMDL
MODEL 6
REMARK VINA RESULT:       0.0     10.186     12.380
REMARK  3 active torsions:
REMARK  status: ('A' for Active; 'I' for Inactive)
REMARK    1  A    between atoms: C_8  and  N_11 
REMARK    2  A    between atoms: N_11  and  C_13 
REMARK    3  A    between atoms: C_13  and  C_14 
ROOT
HETATM    1  N   LIG     1      86.440  94.043  92.840  1.00  0.00    -0.207 NA
HETATM    2  N   LIG     1      86.227  95.605  91.047  1.00  0.00    -0.203 NA
HETATM    3  N   LIG     1      85.367  97.803  91.646  1.00  0.00    -0.153 NA
HETATM    4  H   LIG     1      84.632  99.249  92.968  1.00  0.00     0.189 HD
HETATM    5  N   LIG     1      84.976  98.304  92.865  1.00  0.00    -0.273 N 
HETATM    6  C   LIG     1      85.757  96.535  91.905  1.00  0.00     0.187 A 
HETATM    7  C   LIG     1      85.615  96.247  93.261  1.00  0.00     0.090 A 
HETATM    8  C   LIG     1      85.974  94.955  93.721  1.00  0.00     0.143 A 
HETATM    9  C   LIG     1      85.111  97.381  93.884  1.00  0.00     0.097 A 
HETATM   10  C   LIG     1      86.540  94.414  91.561  1.00  0.00     0.202 A 
ENDROOT
BRANCH   8  11
HETATM   11  N   LIG     1      85.899  94.498  95.044  1.00  0.00    -0.353 N 
HETATM   12  H   LIG     1      86.418  95.002  95.750  1.00  0.00     0.162 HD
BRANCH  11  13
HETATM   13  C   LIG     1      84.884  93.564  95.501  1.00  0.00     0.151 C 
BRANCH  13  14
HETATM   14  C   LIG     1      83.499  94.040  95.206  1.00  0.00     0.100 A 
HETATM   15  C   LIG     1      82.511  93.581  94.379  1.00  0.00     0.024 A 
HETATM   16  C   LIG     1      81.416  94.478  94.523  1.00  0.00     0.029 A 
HETATM   17  C   LIG     1      81.817  95.421  95.424  1.00  0.00     0.122 A 
HETATM   18  O   LIG     1      83.087  95.173  95.847  1.00  0.00    -0.307 OA
ENDBRANCH  13  14
ENDBRANCH  11  13
ENDBRANCH   8  11
TORSDOF 3
ENDMDL
MODEL 7
REMARK VINA RESULT:       0.0      6.739      8.175
REMARK  3 active torsions:
REMARK  status: ('A' for Active; 'I' for Inactive)
REMARK    1  A    between atoms: C_8  and  N_11 
REMARK    2  A    between atoms: N_11  and  C_13 
REMARK    3  A    between atoms: C_13  and  C_14 
ROOT
HETATM    1  N   LIG     1      96.503  87.831  88.743  1.00  0.00    -0.207 NA
HETATM    2  N   LIG     1      96.659  85.916  87.323  1.00  0.00    -0.203 NA
HETATM    3  N   LIG     1      97.446  86.333  85.057  1.00  0.00    -0.153 NA
HETATM    4  H   LIG     1      98.129  87.532  83.484  1.00  0.00     0.189 HD
HETATM    5  N   LIG     1      97.821  87.506  84.447  1.00  0.00    -0.273 N 
HETATM    6  C   LIG     1      97.103  86.694  86.313  1.00  0.00     0.187 A 
HETATM    7  C   LIG     1      97.263  88.068  86.488  1.00  0.00     0.090 A 
HETATM    8  C   LIG     1      96.949  88.632  87.751  1.00  0.00     0.143 A 
HETATM    9  C   LIG     1      97.723  88.596  85.290  1.00  0.00     0.097 A 
HETATM   10  C   LIG     1      96.384  86.527  88.477  1.00  0.00     0.202 A 
ENDROOT
BRANCH   8  11
HETATM   11  N   LIG     1      97.053  89.985  88.101  1.00  0.00    -0.353 N 
HETATM   12  H   LIG     1      97.957  90.427  88.017  1.00  0.00     0.162 HD
BRANCH  11  13
HETATM   13  C   LIG     1      95.897  90.851  88.259  1.00  0.00     0.151 C 
BRANCH  13  14
HETATM   14  C   LIG     1      95.022  90.859  87.048  1.00  0.00     0.100 A 
HETATM   15  C   LIG     1      93.748  90.419  86.814  1.00  0.00     0.024 A 
HETATM   16  C   LIG     1      93.472  90.693  85.446  1.00  0.00     0.029 A 
HETATM   17  C   LIG     1      94.599  91.276  84.943  1.00  0.00     0.122 A 
HETATM   18  O   LIG     1      95.557  91.381  85.905  1.00  0.00    -0.307 OA
ENDBRANCH  13  14
ENDBRANCH  11  13
ENDBRANCH   8  11
TORSDOF 3
ENDMDL
MODEL 8
REMARK VINA RESULT:       0.0      7.953     10.123
REMARK  3 active torsions:
REMARK  status: ('A' for Active; 'I' for Inactive)
REMARK    1  A    between atoms: C_8  and  N_11 
REMARK    2  A    between atoms: N_11  and  C_13 
REMARK    3  A    between atoms: C_13  and  C_14 
ROOT
HETATM    1  N   LIG     1      90.942  95.229  92.665  1.00  0.00    -0.207 NA
HETATM    2  N   LIG     1      89.746  96.595  91.114  1.00  0.00    -0.203 NA
HETATM    3  N   LIG     1      87.953  97.950  92.050  1.00  0.00    -0.153 NA
HETATM    4  H   LIG     1      86.737  98.672  93.592  1.00  0.00     0.189 HD
HETATM    5  N   LIG     1      87.505  98.062  93.344  1.00  0.00    -0.273 N 
HETATM    6  C   LIG     1      88.967  97.060  92.113  1.00  0.00     0.187 A 
HETATM    7  C   LIG     1      89.154  96.624  93.424  1.00  0.00     0.090 A 
HETATM    8  C   LIG     1      90.179  95.680  93.685  1.00  0.00     0.143 A 
HETATM    9  C   LIG     1      88.214  97.264  94.221  1.00  0.00     0.097 A 
HETATM   10  C   LIG     1      90.686  95.707  91.445  1.00  0.00     0.202 A 
ENDROOT
BRANCH   8  11
HETATM   11  N   LIG     1      90.506  95.139  94.937  1.00  0.00    -0.353 N 
HETATM   12  H   LIG     1      90.769  95.777  95.674  1.00  0.00     0.162 HD
BRANCH  11  13
HETATM   13  C   LIG     1      90.179  93.775  95.317  1.00  0.00     0.151 C 
BRANCH  13  14
HETATM   14  C   LIG     1      88.724  93.476  95.164  1.00  0.00     0.100 A 
HETATM   15  C   LIG     1      88.025  92.639  94.337  1.00  0.00     0.024 A 
HETATM   16  C   LIG     1      86.650  92.809  94.660  1.00  0.00     0.029 A 
HETATM   17  C   LIG     1      86.609  93.740  95.657  1.00  0.00     0.122 A 
HETATM   18  O   LIG     1      87.865  94.161  95.974  1.00  0.00    -0.307 OA
ENDBRANCH  13  14
ENDBRANCH  11  13
ENDBRANCH   8  11
TORSDOF 3
ENDMDL
MODEL 9
REMARK VINA RESULT:       0.0      5.068      7.122
REMARK  3 active torsions:
REMARK  status: ('A' for Active; 'I' for Inactive)
REMARK    1  A    between atoms: C_8  and  N_11 
REMARK    2  A    between atoms: N_11  and  C_13 
REMARK    3  A    between atoms: C_13  and  C_14 
ROOT
HETATM    1  N   LIG     1      91.297  89.378  82.948  1.00  0.00    -0.207 NA
HETATM    2  N   LIG     1      90.026  87.778  84.183  1.00  0.00    -0.203 NA
HETATM    3  N   LIG     1      88.357  88.689  85.704  1.00  0.00    -0.153 NA
HETATM    4  H   LIG     1      87.295  90.229  86.642  1.00  0.00     0.189 HD
HETATM    5  N   LIG     1      88.018  89.993  85.976  1.00  0.00    -0.273 N 
HETATM    6  C   LIG     1      89.342  88.775  84.783  1.00  0.00     0.187 A 
HETATM    7  C   LIG     1      89.614  90.108  84.481  1.00  0.00     0.090 A 
HETATM    8  C   LIG     1      90.626  90.396  83.530  1.00  0.00     0.143 A 
HETATM    9  C   LIG     1      88.766  90.897  85.247  1.00  0.00     0.097 A 
HETATM   10  C   LIG     1      90.963  88.135  83.303  1.00  0.00     0.202 A 
ENDROOT
BRANCH   8  11
HETATM   11  N   LIG     1      91.025  91.671  83.108  1.00  0.00    -0.353 N 
HETATM   12  H   LIG     1      90.328  92.273  82.694  1.00  0.00     0.162 HD
BRANCH  11  13
HETATM   13  C   LIG     1      92.277  92.283  83.519  1.00  0.00     0.151 C 
BRANCH  13  14
HETATM   14  C   LIG     1      92.424  92.334  85.005  1.00  0.00     0.100 A 
HETATM   15  C   LIG     1      93.278  91.721  85.880  1.00  0.00     0.024 A 
HETATM   16  C   LIG     1      92.907  92.161  87.181  1.00  0.00     0.029 A 
HETATM   17  C   LIG     1      91.850  93.007  87.006  1.00  0.00     0.122 A 
HETATM   18  O   LIG     1      91.539  93.120  85.685  1.00  0.00    -0.307 OA
ENDBRANCH  13  14
ENDBRANCH  11  13
ENDBRANCH   8  11
TORSDOF 3
ENDMDL
