MODEL 1
REMARK VINA RESULT:      -0.0      0.000      0.000
REMARK  3 active torsions:
REMARK  status: ('A' for Active; 'I' for Inactive)
REMARK    1  A    between atoms: C_8  and  N_11 
REMARK    2  A    between atoms: N_11  and  C_13 
REMARK    3  A    between atoms: C_13  and  C_14 
ROOT
HETATM    1  N   LIG     1      89.461  87.099  91.447  1.00  0.00    -0.207 NA
HETATM    2  N   LIG     1      91.513  87.761  90.419  1.00  0.00    -0.203 NA
HETATM    3  N   LIG     1      93.342  86.161  90.567  1.00  0.00    -0.153 NA
HETATM    4  H   LIG     1      94.233  84.357  91.140  1.00  0.00     0.189 HD
HETATM    5  N   LIG     1      93.393  84.919  91.153  1.00  0.00    -0.273 N 
HETATM    6  C   LIG     1      92.081  86.594  90.788  1.00  0.00     0.187 A 
HETATM    7  C   LIG     1      91.355  85.639  91.498  1.00  0.00     0.090 A 
HETATM    8  C   LIG     1      90.004  85.921  91.826  1.00  0.00     0.143 A 
HETATM    9  C   LIG     1      92.194  84.560  91.737  1.00  0.00     0.097 A 
HETATM   10  C   LIG     1      90.239  87.948  90.770  1.00  0.00     0.202 A 
ENDROOT
BRANCH   8  11
HETATM   11  N   LIG     1      89.130  85.079  92.528  1.00  0.00    -0.353 N 
HETATM   12  H   LIG     1      88.950  84.161  92.148  1.00  0.00     0.162 HD
BRANCH  11  13
HETATM   13  C   LIG     1      88.737  85.322  93.905  1.00  0.00     0.151 C 
BRANCH  13  14
HETATM   14  C   LIG     1      89.912  85.461  94.817  1.00  0.00     0.100 A 
HETATM   15  C   LIG     1      90.413  86.508  95.541  1.00  0.00     0.024 A 
HETATM   16  C   LIG     1      91.572  86.021  96.205  1.00  0.00     0.029 A 
HETATM   17  C   LIG     1      91.698  84.713  95.834  1.00  0.00     0.122 A 
HETATM   18  O   LIG     1      90.697  84.356  94.984  1.00  0.00    -0.307 OA
ENDBRANCH  13  14
ENDBRANCH  11  13
ENDBRANCH   8  11
TORSDOF 3
ENDMDL
MODEL 2
REMARK VINA RESULT:      -0.0      8.197     10.277
REMARK  3 active torsions:
REMARK  status: ('A' for Active; 'I' for Inactive)
REMARK    1  A    between atoms: C_8  and  N_11 
REMARK    2  A    between atoms: N_11  and  C_13 
REMARK    3  A    between atoms: C_13  and  C_14 
ROOT
HETATM    1  N   LIG     1      83.905  91.877  91.052  1.00  0.00    -0.207 NA
HETATM    2  N   LIG     1      85.431  90.369  92.101  1.00  0.00    -0.203 NA
HETATM    3  N   LIG     1      86.768  91.296  93.912  1.00  0.00    -0.153 NA
HETATM    4  H   LIG     1      87.410  92.812  95.203  1.00  0.00     0.189 HD
HETATM    5  N   LIG     1      86.793  92.564  94.441  1.00  0.00    -0.273 N 
HETATM    6  C   LIG     1      85.838  91.350  92.933  1.00  0.00     0.187 A 
HETATM    7  C   LIG     1      85.289  92.628  92.852  1.00  0.00     0.090 A 
HETATM    8  C   LIG     1      84.291  92.876  91.874  1.00  0.00     0.143 A 
HETATM    9  C   LIG     1      85.900  93.415  93.819  1.00  0.00     0.097 A 
HETATM   10  C   LIG     1      84.491  90.687  91.209  1.00  0.00     0.202 A 
ENDROOT
BRANCH   8  11
HETATM   11  N   LIG     1      83.632  94.094  91.656  1.00  0.00    -0.353 N 
HETATM   12  H   LIG     1      83.119  94.499  92.426  1.00  0.00     0.162 HD
BRANCH  11  13
HETATM   13  C   LIG     1      83.910  94.948  90.514  1.00  0.00     0.151 C 
BRANCH  13  14
HETATM   14  C   LIG     1      85.358  95.299  90.405  1.00  0.00     0.100 A 
HETATM   15  C   LIG     1      86.326  94.994  89.488  1.00  0.00     0.024 A 
HETATM   16  C   LIG     1      87.523  95.611  89.943  1.00  0.00     0.029 A 
HETATM   17  C   LIG     1      87.201  96.245  91.109  1.00  0.00     0.122 A 
HETATM   18  O   LIG     1      85.886  96.061  91.408  1.00  0.00    -0.307 OA
ENDBRANCH  13  14
ENDBRANCH  11  13
ENDBRANCH   8  11
TORSDOF 3
ENDMDL
MODEL 3
REMARK VINA RESULT:      -0.0      4.469      5.963
REMARK  3 active torsions:
REMARK  status: ('A' for Active; 'I' for Inactive)
REMARK    1  A    between atoms: C_8  and  N_11 
REMARK    2  A    between atoms: N_11  and  C_13 
REMARK    3  A    between atoms: C_13  and  C_14 
ROOT
HETATM    1  N   LIG     1      93.225  85.263  86.685  1.00  0.00    -0.207 NA
HETATM    2  N   LIG     1      92.334  83.573  85.250  1.00  0.00    -0.203 NA
HETATM    3  N   LIG     1      89.906  83.452  85.128  1.00  0.00    -0.153 NA
HETATM    4  H   LIG     1      87.957  84.041  85.611  1.00  0.00     0.189 HD
HETATM    5  N   LIG     1      88.944  84.206  85.756  1.00  0.00    -0.273 N 
HETATM    6  C   LIG     1      91.080  83.960  85.563  1.00  0.00     0.187 A 
HETATM    7  C   LIG     1      90.858  85.014  86.448  1.00  0.00     0.090 A 
HETATM    8  C   LIG     1      91.980  85.672  87.013  1.00  0.00     0.143 A 
HETATM    9  C   LIG     1      89.485  85.176  86.577  1.00  0.00     0.097 A 
HETATM   10  C   LIG     1      93.333  84.243  85.828  1.00  0.00     0.202 A 
ENDROOT
BRANCH   8  11
HETATM   11  N   LIG     1      91.941  86.747  87.912  1.00  0.00    -0.353 N 
HETATM   12  H   LIG     1      91.468  87.591  87.622  1.00  0.00     0.162 HD
BRANCH  11  13
HETATM   13  C   LIG     1      92.249  86.606  89.325  1.00  0.00     0.151 C 
BRANCH  13  14
HETATM   14  C   LIG     1      91.419  85.554  89.986  1.00  0.00     0.100 A 
HETATM   15  C   LIG     1      91.720  84.343  90.546  1.00  0.00     0.024 A 
HETATM   16  C   LIG     1      90.490  83.792  91.000  1.00  0.00     0.029 A 
HETATM   17  C   LIG     1      89.527  84.705  90.680  1.00  0.00     0.122 A 
HETATM   18  O   LIG     1      90.075  85.784  90.057  1.00  0.00    -0.307 OA
ENDBRANCH  13  14
ENDBRANCH  11  13
ENDBRANCH   8  11
TORSDOF 3
ENDMDL
MODEL 4
REMARK VINA RESULT:      -0.0      3.647      5.074
REMARK  3 active torsions:
REMARK  status: ('A' for Active; 'I' for Inactive)
REMARK    1  A    between atoms: C_8  and  N_11 
REMARK    2  A    between atoms: N_11  and  C_13 
REMARK    3  A    between atoms: C_13  and  C_14 
ROOT
HETATM    1  N   LIG     1      88.257  90.168  94.098  1.00  0.00    -0.207 NA
HETATM    2  N   LIG     1      88.567  90.300  96.462  1.00  0.00    -0.203 NA
HETATM    3  N   LIG     1      90.638  89.350  97.319  1.00  0.00    -0.153 NA
HETATM    4  H   LIG     1      92.487  88.386  97.150  1.00  0.00     0.189 HD
HETATM    5  N   LIG     1      91.677  88.740  96.659  1.00  0.00    -0.273 N 
HETATM    6  C   LIG     1      89.760  89.681  96.347  1.00  0.00     0.187 A 
HETATM    7  C   LIG     1      90.241  89.287  95.099  1.00  0.00     0.090 A 
HETATM    8  C   LIG     1      89.449  89.550  93.953  1.00  0.00     0.143 A 
HETATM    9  C   LIG     1      91.474  88.679  95.294  1.00  0.00     0.097 A 
HETATM   10  C   LIG     1      87.883  90.507  95.335  1.00  0.00     0.202 A 
ENDROOT
BRANCH   8  11
HETATM   11  N   LIG     1      89.778  89.227  92.629  1.00  0.00    -0.353 N 
HETATM   12  H   LIG     1      90.633  89.607  92.247  1.00  0.00     0.162 HD
BRANCH  11  13
HETATM   13  C   LIG     1      89.145  88.142  91.900  1.00  0.00     0.151 C 
BRANCH  13  14
HETATM   14  C   LIG     1      89.244  86.838  92.623  1.00  0.00     0.100 A 
HETATM   15  C   LIG     1      88.314  86.020  93.203  1.00  0.00     0.024 A 
HETATM   16  C   LIG     1      89.030  84.920  93.752  1.00  0.00     0.029 A 
HETATM   17  C   LIG     1      90.346  85.149  93.470  1.00  0.00     0.122 A 
HETATM   18  O   LIG     1      90.495  86.317  92.787  1.00  0.00    -0.307 OA
ENDBRANCH  13  14
ENDBRANCH  11  13
ENDBRANCH   8  11
TORSDOF 3
ENDMDL
MODEL 5
REMARK VINA RESULT:      -0.0      8.730     10.788
REMARK  3 active torsions:
REMARK  status: ('A' for Active; 'I' for Inactive)
REMARK    1  A    between atoms: C_8  and  N_11 
REMARK    2  A    between atoms: N_11  and  C_13 
REMARK    3  A    between atoms: C_13  and  C_14 
ROOT
HETATM    1  N   LIG     1      85.982  93.624  89.945  1.00  0.00    -0.207 NA
HETATM    2  N   LIG     1      84.600  91.684  90.117  1.00  0.00    -0.203 NA
HETATM    3  N   LIG     1      85.194  89.822  88.664  1.00  0.00    -0.153 NA
HETATM    4  H   LIG     1      86.337  88.855  87.203  1.00  0.00     0.189 HD
HETATM    5  N   LIG     1      86.208  89.699  87.746  1.00  0.00    -0.273 N 
HETATM    6  C   LIG     1      85.343  91.064  89.176  1.00  0.00     0.187 A 
HETATM    7  C   LIG     1      86.433  91.706  88.591  1.00  0.00     0.090 A 
HETATM    8  C   LIG     1      86.745  93.026  89.004  1.00  0.00     0.143 A 
HETATM    9  C   LIG     1      86.993  90.833  87.668  1.00  0.00     0.097 A 
HETATM   10  C   LIG     1      84.959  92.926  90.446  1.00  0.00     0.202 A 
ENDROOT
BRANCH   8  11
HETATM   11  N   LIG     1      87.801  93.814  88.527  1.00  0.00    -0.353 N 
HETATM   12  H   LIG     1      88.741  93.456  88.623  1.00  0.00     0.162 HD
BRANCH  11  13
HETATM   13  C   LIG     1      87.603  94.939  87.628  1.00  0.00     0.151 C 
BRANCH  13  14
HETATM   14  C   LIG     1      86.854  94.555  86.393  1.00  0.00     0.100 A 
HETATM   15  C   LIG     1      85.619  94.889  85.910  1.00  0.00     0.024 A 
HETATM   16  C   LIG     1      85.462  94.185  84.684  1.00  0.00     0.029 A 
HETATM   17  C   LIG     1      86.611  93.468  84.511  1.00  0.00     0.122 A 
HETATM   18  O   LIG     1      87.469  93.678  85.546  1.00  0.00    -0.307 OA
ENDBRANCH  13  14
ENDBRANCH  11  13
ENDBRANCH   8  11
TORSDOF 3
ENDMDL
MODEL 6
REMARK VINA RESULT:      -0.0      3.474      4.522
REMARK  3 active torsions:
REMARK  status: ('A' for Active; 'I' for Inactive)
REMARK    1  A    between atoms: C_8  and  N_11 
REMARK    2  A    between atoms: N_11  and  C_13 
REMARK    3  A    between atoms: C_13  and  C_14 
ROOT
HETATM    1  N   LIG     1      90.015  90.358  92.186  1.00  0.00    -0.207 NA
HETATM    2  N   LIG     1      90.577  88.187  91.365  1.00  0.00    -0.203 NA
HETATM    3  N   LIG     1      89.813  86.308  92.713  1.00  0.00    -0.153 NA
HETATM    4  H   LIG     1      88.850  85.421  94.345  1.00  0.00     0.189 HD
HETATM    5  N   LIG     1      89.100  86.288  93.888  1.00  0.00    -0.273 N 
HETATM    6  C   LIG     1      89.951  87.620  92.418  1.00  0.00     0.187 A 
HETATM    7  C   LIG     1      89.335  88.407  93.390  1.00  0.00     0.090 A 
HETATM    8  C   LIG     1      89.379  89.817  93.249  1.00  0.00     0.143 A 
HETATM    9  C   LIG     1      88.787  87.555  94.339  1.00  0.00     0.097 A 
HETATM   10  C   LIG     1      90.575  89.520  91.310  1.00  0.00     0.202 A 
ENDROOT
BRANCH   8  11
HETATM   11  N   LIG     1      88.813  90.754  94.124  1.00  0.00    -0.353 N 
HETATM   12  H   LIG     1      87.818  90.703  94.294  1.00  0.00     0.162 HD
BRANCH  11  13
HETATM   13  C   LIG     1      89.605  91.565  95.032  1.00  0.00     0.151 C 
BRANCH  13  14
HETATM   14  C   LIG     1      90.487  90.739  95.911  1.00  0.00     0.100 A 
HETATM   15  C   LIG     1      91.845  90.604  96.008  1.00  0.00     0.024 A 
HETATM   16  C   LIG     1      92.082  89.646  97.032  1.00  0.00     0.029 A 
HETATM   17  C   LIG     1      90.852  89.262  97.482  1.00  0.00     0.122 A 
HETATM   18  O   LIG     1      89.867  89.915  96.806  1.00  0.00    -0.307 OA
ENDBRANCH  13  14
ENDBRANCH  11  13
ENDBRANCH   8  11
TORSDOF 3
ENDMDL
MODEL 7
REMARK VINA RESULT:       0.0      5.245      7.122
REMARK  3 active torsions:
REMARK  status: ('A' for Active; 'I' for Inactive)
REMARK    1  A    between atoms: C_8  and  N_11 
REMARK    2  A    between atoms: N_11  and  C_13 
REMARK    3  A    between atoms: C_13  and  C_14 
ROOT
HETATM    1  N   LIG     1      93.149  84.067  89.581  1.00  0.00    -0.207 NA
HETATM    2  N   LIG     1      93.272  81.728  90.045  1.00  0.00    -0.203 NA
HETATM    3  N   LIG     1      95.137  81.016  91.439  1.00  0.00    -0.153 NA
HETATM    4  H   LIG     1      96.869  81.312  92.575  1.00  0.00     0.189 HD
HETATM    5  N   LIG     1      96.149  81.747  92.013  1.00  0.00    -0.273 N 
HETATM    6  C   LIG     1      94.387  81.926  90.780  1.00  0.00     0.187 A 
HETATM    7  C   LIG     1      94.918  83.205  90.939  1.00  0.00     0.090 A 
HETATM    8  C   LIG     1      94.262  84.295  90.313  1.00  0.00     0.143 A 
HETATM    9  C   LIG     1      96.053  83.096  91.731  1.00  0.00     0.097 A 
HETATM   10  C   LIG     1      92.719  82.806  89.487  1.00  0.00     0.202 A 
ENDROOT
BRANCH   8  11
HETATM   11  N   LIG     1      94.653  85.639  90.370  1.00  0.00    -0.353 N 
HETATM   12  H   LIG     1      94.721  86.074  91.280  1.00  0.00     0.162 HD
BRANCH  11  13
HETATM   13  C   LIG     1      95.269  86.331  89.251  1.00  0.00     0.151 C 
BRANCH  13  14
HETATM   14  C   LIG     1      96.484  85.624  88.744  1.00  0.00     0.100 A 
HETATM   15  C   LIG     1      96.771  84.988  87.567  1.00  0.00     0.024 A 
HETATM   16  C   LIG     1      98.099  84.495  87.689  1.00  0.00     0.029 A 
HETATM   17  C   LIG     1      98.525  84.862  88.933  1.00  0.00     0.122 A 
HETATM   18  O   LIG     1      97.551  85.547  89.592  1.00  0.00    -0.307 OA
ENDBRANCH  13  14
ENDBRANCH  11  13
ENDBRANCH   8  11
TORSDOF 3
ENDMDL
MODEL 8
REMARK VINA RESULT:       0.0      3.260      4.854
REMARK  3 active torsions:
REMARK  status: ('A' for Active; 'I' for Inactive)
REMARK    1  A    between atoms: C_8  and  N_11 
REMARK    2  A    between atoms: N_11  and  C_13 
REMARK    3  A    between atoms: C_13  and  C_14 
ROOT
HETATM    1  N   LIG     1      91.458  88.573  90.379  1.00  0.00    -0.207 NA
HETATM    2  N   LIG     1      90.720  86.360  90.891  1.00  0.00    -0.203 NA
HETATM    3  N   LIG     1      88.651  86.196  92.164  1.00  0.00    -0.153 NA
HETATM    4  H   LIG     1      86.983  86.964  93.167  1.00  0.00     0.189 HD
HETATM    5  N   LIG     1      87.822  87.180  92.645  1.00  0.00    -0.273 N 
HETATM    6  C   LIG     1      89.644  86.861  91.534  1.00  0.00     0.187 A 
HETATM    7  C   LIG     1      89.441  88.237  91.618  1.00  0.00     0.090 A 
HETATM    8  C   LIG     1      90.389  89.101  91.014  1.00  0.00     0.143 A 
HETATM    9  C   LIG     1      88.270  88.450  92.334  1.00  0.00     0.097 A 
HETATM   10  C   LIG     1      91.565  87.241  90.353  1.00  0.00     0.202 A 
ENDROOT
BRANCH   8  11
HETATM   11  N   LIG     1      90.340  90.502  90.998  1.00  0.00    -0.353 N 
HETATM   12  H   LIG     1      89.529  90.943  90.588  1.00  0.00     0.162 HD
BRANCH  11  13
HETATM   13  C   LIG     1      91.212  91.331  91.812  1.00  0.00     0.151 C 
BRANCH  13  14
HETATM   14  C   LIG     1      91.135  90.985  93.263  1.00  0.00     0.100 A 
HETATM   15  C   LIG     1      92.035  90.447  94.143  1.00  0.00     0.024 A 
HETATM   16  C   LIG     1      91.362  90.340  95.392  1.00  0.00     0.029 A 
HETATM   17  C   LIG     1      90.099  90.815  95.182  1.00  0.00     0.122 A 
HETATM   18  O   LIG     1      89.942  91.208  93.888  1.00  0.00    -0.307 OA
ENDBRANCH  13  14
ENDBRANCH  11  13
ENDBRANCH   8  11
TORSDOF 3
ENDMDL
MODEL 9
REMARK VINA RESULT:       0.0      3.949      5.858
REMARK  3 active torsions:
REMARK  status: ('A' for Active; 'I' for Inactive)
REMARK    1  A    between atoms: C_8  and  N_11 
REMARK    2  A    between atoms: N_11  and  C_13 
REMARK    3  A    between atoms: C_13  and  C_14 
ROOT
HETATM    1  N   LIG     1      93.129  84.261  90.896  1.00  0.00    -0.207 NA
HETATM    2  N   LIG     1      91.931  82.416  91.827  1.00  0.00    -0.203 NA
HETATM    3  N   LIG     1      92.255  82.030  94.209  1.00  0.00    -0.153 NA
HETATM    4  H   LIG     1      93.066  82.431  96.096  1.00  0.00     0.189 HD
HETATM    5  N   LIG     1      93.024  82.707  95.124  1.00  0.00    -0.273 N 
HETATM    6  C   LIG     1      92.455  82.682  93.043  1.00  0.00     0.187 A 
HETATM    7  C   LIG     1      93.333  83.749  93.223  1.00  0.00     0.090 A 
HETATM    8  C   LIG     1      93.665  84.551  92.102  1.00  0.00     0.143 A 
HETATM    9  C   LIG     1      93.704  83.770  94.561  1.00  0.00     0.097 A 
HETATM   10  C   LIG     1      92.298  83.218  90.825  1.00  0.00     0.202 A 
ENDROOT
BRANCH   8  11
HETATM   11  N   LIG     1      94.523  85.659  92.103  1.00  0.00    -0.353 N 
HETATM   12  H   LIG     1      94.298  86.432  92.714  1.00  0.00     0.162 HD
BRANCH  11  13
HETATM   13  C   LIG     1      95.860  85.623  91.536  1.00  0.00     0.151 C 
BRANCH  13  14
HETATM   14  C   LIG     1      96.693  84.523  92.111  1.00  0.00     0.100 A 
HETATM   15  C   LIG     1      97.225  83.381  91.579  1.00  0.00     0.024 A 
HETATM   16  C   LIG     1      97.911  82.725  92.639  1.00  0.00     0.029 A 
HETATM   17  C   LIG     1      97.744  83.513  93.741  1.00  0.00     0.122 A 
HETATM   18  O   LIG     1      96.999  84.611  93.438  1.00  0.00    -0.307 OA
ENDBRANCH  13  14
ENDBRANCH  11  13
ENDBRANCH   8  11
TORSDOF 3
ENDMDL
