MODEL 1
REMARK VINA RESULT:      -0.0      0.000      0.000
REMARK  5 active torsions:
REMARK  status: ('A' for Active; 'I' for Inactive)
REMARK    1  A    between atoms: S_1  and  C_4 
REMARK    2  A    between atoms: S_1  and  N_13 
REMARK    3  A    between atoms: C_7  and  N_10 
REMARK    4  A    between atoms: N_13  and  C_15 
REMARK    5  A    between atoms: C_15  and  C_16 
ROOT
HETATM    1  S   LIG     1      97.866  88.251  94.760  1.00  0.00     0.261 S 
HETATM    2  O   LIG     1      99.239  87.838  95.092  1.00  0.00    -0.200 OA
HETATM    3  O   LIG     1      97.372  88.164  93.378  1.00  0.00    -0.200 OA
ENDROOT
BRANCH   1   4
HETATM    4  C   LIG     1      97.601  89.923  95.342  1.00  0.00     0.103 A 
HETATM    5  C   LIG     1      97.771  90.227  96.707  1.00  0.00     0.014 A 
HETATM    6  C   LIG     1      97.540  91.540  97.161  1.00  0.00     0.017 A 
HETATM    7  C   LIG     1      97.144  92.543  96.252  1.00  0.00     0.050 A 
HETATM    8  C   LIG     1      96.982  92.234  94.887  1.00  0.00     0.017 A 
HETATM    9  C   LIG     1      97.212  90.922  94.428  1.00  0.00     0.014 A 
BRANCH   7  10
HETATM   10  N   LIG     1      96.911  93.841  96.705  1.00  0.00    -0.398 N 
HETATM   11  H   LIG     1      96.639  94.023  97.661  1.00  0.00     0.156 HD
HETATM   12  H   LIG     1      97.136  94.644  96.136  1.00  0.00     0.156 HD
ENDBRANCH   7  10
ENDBRANCH   1   4
BRANCH   1  13
HETATM   13  N   LIG     1      96.784  87.339  95.748  1.00  0.00    -0.297 N 
HETATM   14  H   LIG     1      97.244  86.571  96.235  1.00  0.00     0.173 HD
BRANCH  13  15
HETATM   15  C   LIG     1      95.441  87.013  95.259  1.00  0.00     0.138 C 
BRANCH  15  16
HETATM   16  C   LIG     1      94.394  87.995  95.810  1.00  0.00     0.138 C 
HETATM   17  C   LIG     1      94.096  89.166  94.849  1.00  0.00     0.032 C 
HETATM   18  C   LIG     1      93.137  90.171  95.496  1.00  0.00     0.005 C 
HETATM   19  C   LIG     1      93.683  90.603  96.861  1.00  0.00     0.032 C 
HETATM   20  C   LIG     1      94.001  89.369  97.721  1.00  0.00     0.142 C 
HETATM   21  O   LIG     1      94.912  88.521  97.030  1.00  0.00    -0.355 OA
ENDBRANCH  15  16
ENDBRANCH  13  15
ENDBRANCH   1  13
TORSDOF 5
ENDMDL
MODEL 2
REMARK VINA RESULT:      -0.0     10.118     12.400
REMARK  5 active torsions:
REMARK  status: ('A' for Active; 'I' for Inactive)
REMARK    1  A    between atoms: S_1  and  C_4 
REMARK    2  A    between atoms: S_1  and  N_13 
REMARK    3  A    between atoms: C_7  and  N_10 
REMARK    4  A    between atoms: N_13  and  C_15 
REMARK    5  A    between atoms: C_15  and  C_16 
ROOT
HETATM    1  S   LIG     1      82.761  92.204  93.464  1.00  0.00     0.261 S 
HETATM    2  O   LIG     1      81.684  92.928  94.157  1.00  0.00    -0.200 OA
HETATM    3  O   LIG     1      82.446  91.179  92.458  1.00  0.00    -0.200 OA
ENDROOT
BRANCH   1   4
HETATM    4  C   LIG     1      83.852  91.475  94.680  1.00  0.00     0.103 A 
HETATM    5  C   LIG     1      84.493  92.294  95.630  1.00  0.00     0.014 A 
HETATM    6  C   LIG     1      85.368  91.716  96.571  1.00  0.00     0.017 A 
HETATM    7  C   LIG     1      85.596  90.324  96.562  1.00  0.00     0.050 A 
HETATM    8  C   LIG     1      84.946  89.509  95.613  1.00  0.00     0.017 A 
HETATM    9  C   LIG     1      84.071  90.083  94.670  1.00  0.00     0.014 A 
BRANCH   7  10
HETATM   10  N   LIG     1      86.465  89.755  97.491  1.00  0.00    -0.398 N 
HETATM   11  H   LIG     1      87.445  89.624  97.283  1.00  0.00     0.156 HD
HETATM   12  H   LIG     1      86.176  89.579  98.442  1.00  0.00     0.156 HD
ENDBRANCH   7  10
ENDBRANCH   1   4
BRANCH   1  13
HETATM   13  N   LIG     1      83.780  93.370  92.703  1.00  0.00    -0.297 N 
HETATM   14  H   LIG     1      83.378  94.307  92.702  1.00  0.00     0.173 HD
BRANCH  13  15
HETATM   15  C   LIG     1      84.493  93.029  91.469  1.00  0.00     0.138 C 
BRANCH  15  16
HETATM   16  C   LIG     1      85.947  92.620  91.761  1.00  0.00     0.138 C 
HETATM   17  C   LIG     1      86.131  91.093  91.895  1.00  0.00     0.032 C 
HETATM   18  C   LIG     1      87.569  90.751  92.299  1.00  0.00     0.005 C 
HETATM   19  C   LIG     1      87.956  91.543  93.553  1.00  0.00     0.032 C 
HETATM   20  C   LIG     1      87.684  93.040  93.342  1.00  0.00     0.142 C 
HETATM   21  O   LIG     1      86.318  93.238  92.991  1.00  0.00    -0.355 OA
ENDBRANCH  15  16
ENDBRANCH  13  15
ENDBRANCH   1  13
TORSDOF 5
ENDMDL
MODEL 3
REMARK VINA RESULT:      -0.0      6.163      7.655
REMARK  5 active torsions:
REMARK  status: ('A' for Active; 'I' for Inactive)
REMARK    1  A    between atoms: S_1  and  C_4 
REMARK    2  A    between atoms: S_1  and  N_13 
REMARK    3  A    between atoms: C_7  and  N_10 
REMARK    4  A    between atoms: N_13  and  C_15 
REMARK    5  A    between atoms: C_15  and  C_16 
ROOT
HETATM    1  S   LIG     1      89.800  90.044  96.702  1.00  0.00     0.261 S 
HETATM    2  O   LIG     1      90.725  88.940  96.399  1.00  0.00    -0.200 OA
HETATM    3  O   LIG     1      88.353  89.803  96.799  1.00  0.00    -0.200 OA
ENDROOT
BRANCH   1   4
HETATM    4  C   LIG     1      90.067  91.369  95.529  1.00  0.00     0.103 A 
HETATM    5  C   LIG     1      91.340  91.960  95.413  1.00  0.00     0.014 A 
HETATM    6  C   LIG     1      91.537  93.017  94.503  1.00  0.00     0.017 A 
HETATM    7  C   LIG     1      90.465  93.477  93.712  1.00  0.00     0.050 A 
HETATM    8  C   LIG     1      89.194  92.877  93.828  1.00  0.00     0.017 A 
HETATM    9  C   LIG     1      88.993  91.820  94.736  1.00  0.00     0.014 A 
BRANCH   7  10
HETATM   10  N   LIG     1      90.660  94.526  92.815  1.00  0.00    -0.398 N 
HETATM   11  H   LIG     1      91.279  94.431  92.022  1.00  0.00     0.156 HD
HETATM   12  H   LIG     1      90.094  95.361  92.851  1.00  0.00     0.156 HD
ENDBRANCH   7  10
ENDBRANCH   1   4
BRANCH   1  13
HETATM   13  N   LIG     1      90.299  90.760  98.190  1.00  0.00    -0.297 N 
HETATM   14  H   LIG     1      91.001  90.207  98.682  1.00  0.00     0.173 HD
BRANCH  13  15
HETATM   15  C   LIG     1      89.310  91.384  99.074  1.00  0.00     0.138 C 
BRANCH  15  16
HETATM   16  C   LIG     1      89.272  92.909  98.878  1.00  0.00     0.138 C 
HETATM   17  C   LIG     1      88.180  93.365  97.886  1.00  0.00     0.032 C 
HETATM   18  C   LIG     1      88.263  94.876  97.642  1.00  0.00     0.005 C 
HETATM   19  C   LIG     1      89.689  95.255  97.225  1.00  0.00     0.032 C 
HETATM   20  C   LIG     1      90.703  94.710  98.243  1.00  0.00     0.142 C 
HETATM   21  O   LIG     1      90.546  93.300  98.373  1.00  0.00    -0.355 OA
ENDBRANCH  15  16
ENDBRANCH  13  15
ENDBRANCH   1  13
TORSDOF 5
ENDMDL
MODEL 4
REMARK VINA RESULT:      -0.0     11.261     13.349
REMARK  5 active torsions:
REMARK  status: ('A' for Active; 'I' for Inactive)
REMARK    1  A    between atoms: S_1  and  C_4 
REMARK    2  A    between atoms: S_1  and  N_13 
REMARK    3  A    between atoms: C_7  and  N_10 
REMARK    4  A    between atoms: N_13  and  C_15 
REMARK    5  A    between atoms: C_15  and  C_16 
ROOT
HETATM    1  S   LIG     1      93.017  85.320  87.103  1.00  0.00     0.261 S 
HETATM    2  O   LIG     1      94.268  84.799  87.677  1.00  0.00    -0.200 OA
HETATM    3  O   LIG     1      91.886  85.675  87.972  1.00  0.00    -0.200 OA
ENDROOT
BRANCH   1   4
HETATM    4  C   LIG     1      92.427  84.181  85.856  1.00  0.00     0.103 A 
HETATM    5  C   LIG     1      93.245  83.856  84.755  1.00  0.00     0.014 A 
HETATM    6  C   LIG     1      92.765  82.975  83.767  1.00  0.00     0.017 A 
HETATM    7  C   LIG     1      91.473  82.420  83.882  1.00  0.00     0.050 A 
HETATM    8  C   LIG     1      90.662  82.744  84.988  1.00  0.00     0.017 A 
HETATM    9  C   LIG     1      91.138  83.624  85.979  1.00  0.00     0.014 A 
BRANCH   7  10
HETATM   10  N   LIG     1      90.999  81.553  82.900  1.00  0.00    -0.398 N 
HETATM   11  H   LIG     1      90.471  80.725  83.140  1.00  0.00     0.156 HD
HETATM   12  H   LIG     1      91.048  81.790  81.919  1.00  0.00     0.156 HD
ENDBRANCH   7  10
ENDBRANCH   1   4
BRANCH   1  13
HETATM   13  N   LIG     1      93.405  86.721  86.172  1.00  0.00    -0.297 N 
HETATM   14  H   LIG     1      94.359  87.046  86.322  1.00  0.00     0.173 HD
BRANCH  13  15
HETATM   15  C   LIG     1      92.425  87.802  86.028  1.00  0.00     0.138 C 
BRANCH  15  16
HETATM   16  C   LIG     1      91.660  87.687  84.699  1.00  0.00     0.138 C 
HETATM   17  C   LIG     1      90.316  86.939  84.836  1.00  0.00     0.032 C 
HETATM   18  C   LIG     1      89.655  86.754  83.466  1.00  0.00     0.005 C 
HETATM   19  C   LIG     1      90.644  86.096  82.498  1.00  0.00     0.032 C 
HETATM   20  C   LIG     1      91.965  86.880  82.475  1.00  0.00     0.142 C 
HETATM   21  O   LIG     1      92.496  86.971  83.793  1.00  0.00    -0.355 OA
ENDBRANCH  15  16
ENDBRANCH  13  15
ENDBRANCH   1  13
TORSDOF 5
ENDMDL
MODEL 5
REMARK VINA RESULT:      -0.0      9.238     10.931
REMARK  5 active torsions:
REMARK  status: ('A' for Active; 'I' for Inactive)
REMARK    1  A    between atoms: S_1  and  C_4 
REMARK    2  A    between atoms: S_1  and  N_13 
REMARK    3  A    between atoms: C_7  and  N_10 
REMARK    4  A    between atoms: N_13  and  C_15 
REMARK    5  A    between atoms: C_15  and  C_16 
ROOT
HETATM    1  S   LIG     1      87.016  94.180  89.910  1.00  0.00     0.261 S 
HETATM    2  O   LIG     1      87.483  94.867  88.694  1.00  0.00    -0.200 OA
HETATM    3  O   LIG     1      86.500  94.949  91.052  1.00  0.00    -0.200 OA
ENDROOT
BRANCH   1   4
HETATM    4  C   LIG     1      88.312  93.099  90.505  1.00  0.00     0.103 A 
HETATM    5  C   LIG     1      88.824  92.088  89.668  1.00  0.00     0.014 A 
HETATM    6  C   LIG     1      89.829  91.227  90.151  1.00  0.00     0.017 A 
HETATM    7  C   LIG     1      90.320  91.381  91.464  1.00  0.00     0.050 A 
HETATM    8  C   LIG     1      89.809  92.399  92.294  1.00  0.00     0.017 A 
HETATM    9  C   LIG     1      88.804  93.262  91.815  1.00  0.00     0.014 A 
BRANCH   7  10
HETATM   10  N   LIG     1      91.311  90.525  91.941  1.00  0.00    -0.398 N 
HETATM   11  H   LIG     1      92.004  90.126  91.322  1.00  0.00     0.156 HD
HETATM   12  H   LIG     1      91.452  90.384  92.931  1.00  0.00     0.156 HD
ENDBRANCH   7  10
ENDBRANCH   1   4
BRANCH   1  13
HETATM   13  N   LIG     1      85.785  93.063  89.448  1.00  0.00    -0.297 N 
HETATM   14  H   LIG     1      85.470  93.195  88.487  1.00  0.00     0.173 HD
BRANCH  13  15
HETATM   15  C   LIG     1      84.709  92.727  90.384  1.00  0.00     0.138 C 
BRANCH  15  16
HETATM   16  C   LIG     1      84.999  91.405  91.115  1.00  0.00     0.138 C 
HETATM   17  C   LIG     1      85.677  91.607  92.487  1.00  0.00     0.032 C 
HETATM   18  C   LIG     1      86.047  90.259  93.116  1.00  0.00     0.005 C 
HETATM   19  C   LIG     1      86.873  89.435  92.123  1.00  0.00     0.032 C 
HETATM   20  C   LIG     1      86.142  89.338  90.775  1.00  0.00     0.142 C 
HETATM   21  O   LIG     1      85.869  90.645  90.279  1.00  0.00    -0.355 OA
ENDBRANCH  15  16
ENDBRANCH  13  15
ENDBRANCH   1  13
TORSDOF 5
ENDMDL
MODEL 6
REMARK VINA RESULT:      -0.0      8.893     10.323
REMARK  5 active torsions:
REMARK  status: ('A' for Active; 'I' for Inactive)
REMARK    1  A    between atoms: S_1  and  C_4 
REMARK    2  A    between atoms: S_1  and  N_13 
REMARK    3  A    between atoms: C_7  and  N_10 
REMARK    4  A    between atoms: N_13  and  C_15 
REMARK    5  A    between atoms: C_15  and  C_16 
ROOT
HETATM    1  S   LIG     1      89.852  93.607  91.122  1.00  0.00     0.261 S 
HETATM    2  O   LIG     1      88.464  93.564  91.609  1.00  0.00    -0.200 OA
HETATM    3  O   LIG     1      90.891  94.314  91.885  1.00  0.00    -0.200 OA
ENDROOT
BRANCH   1   4
HETATM    4  C   LIG     1      89.864  94.238  89.447  1.00  0.00     0.103 A 
HETATM    5  C   LIG     1      89.127  93.580  88.443  1.00  0.00     0.014 A 
HETATM    6  C   LIG     1      89.159  94.070  87.122  1.00  0.00     0.017 A 
HETATM    7  C   LIG     1      89.922  95.215  86.811  1.00  0.00     0.050 A 
HETATM    8  C   LIG     1      90.652  95.872  87.822  1.00  0.00     0.017 A 
HETATM    9  C   LIG     1      90.623  95.386  89.144  1.00  0.00     0.014 A 
BRANCH   7  10
HETATM   10  N   LIG     1      89.956  95.695  85.504  1.00  0.00    -0.398 N 
HETATM   11  H   LIG     1      90.763  95.555  84.913  1.00  0.00     0.156 HD
HETATM   12  H   LIG     1      89.131  96.076  85.062  1.00  0.00     0.156 HD
ENDBRANCH   7  10
ENDBRANCH   1   4
BRANCH   1  13
HETATM   13  N   LIG     1      90.390  91.982  90.910  1.00  0.00    -0.297 N 
HETATM   14  H   LIG     1      89.755  91.297  91.318  1.00  0.00     0.173 HD
BRANCH  13  15
HETATM   15  C   LIG     1      91.808  91.650  91.077  1.00  0.00     0.138 C 
BRANCH  15  16
HETATM   16  C   LIG     1      92.529  91.584  89.721  1.00  0.00     0.138 C 
HETATM   17  C   LIG     1      93.229  92.907  89.342  1.00  0.00     0.032 C 
HETATM   18  C   LIG     1      93.829  92.822  87.935  1.00  0.00     0.005 C 
HETATM   19  C   LIG     1      92.754  92.373  86.939  1.00  0.00     0.032 C 
HETATM   20  C   LIG     1      92.080  91.084  87.431  1.00  0.00     0.142 C 
HETATM   21  O   LIG     1      91.543  91.286  88.735  1.00  0.00    -0.355 OA
ENDBRANCH  15  16
ENDBRANCH  13  15
ENDBRANCH   1  13
TORSDOF 5
ENDMDL
MODEL 7
REMARK VINA RESULT:      -0.0      7.517      9.158
REMARK  5 active torsions:
REMARK  status: ('A' for Active; 'I' for Inactive)
REMARK    1  A    between atoms: S_1  and  C_4 
REMARK    2  A    between atoms: S_1  and  N_13 
REMARK    3  A    between atoms: C_7  and  N_10 
REMARK    4  A    between atoms: N_13  and  C_15 
REMARK    5  A    between atoms: C_15  and  C_16 
ROOT
HETATM    1  S   LIG     1      90.361  91.564  91.900  1.00  0.00     0.261 S 
HETATM    2  O   LIG     1      89.063  91.578  92.594  1.00  0.00    -0.200 OA
HETATM    3  O   LIG     1      91.429  92.494  92.294  1.00  0.00    -0.200 OA
ENDROOT
BRANCH   1   4
HETATM    4  C   LIG     1      90.085  91.745  90.141  1.00  0.00     0.103 A 
HETATM    5  C   LIG     1      89.276  90.816  89.457  1.00  0.00     0.014 A 
HETATM    6  C   LIG     1      89.082  90.952  88.068  1.00  0.00     0.017 A 
HETATM    7  C   LIG     1      89.691  92.016  87.370  1.00  0.00     0.050 A 
HETATM    8  C   LIG     1      90.494  92.945  88.062  1.00  0.00     0.017 A 
HETATM    9  C   LIG     1      90.691  92.813  89.450  1.00  0.00     0.014 A 
BRANCH   7  10
HETATM   10  N   LIG     1      89.500  92.146  85.996  1.00  0.00    -0.398 N 
HETATM   11  H   LIG     1      90.219  91.879  85.338  1.00  0.00     0.156 HD
HETATM   12  H   LIG     1      88.597  92.382  85.610  1.00  0.00     0.156 HD
ENDBRANCH   7  10
ENDBRANCH   1   4
BRANCH   1  13
HETATM   13  N   LIG     1      91.005  89.968  92.012  1.00  0.00    -0.297 N 
HETATM   14  H   LIG     1      90.495  89.379  92.670  1.00  0.00     0.173 HD
BRANCH  13  15
HETATM   15  C   LIG     1      92.456  89.761  92.032  1.00  0.00     0.138 C 
BRANCH  15  16
HETATM   16  C   LIG     1      92.984  89.386  90.638  1.00  0.00     0.138 C 
HETATM   17  C   LIG     1      93.506  90.601  89.841  1.00  0.00     0.032 C 
HETATM   18  C   LIG     1      93.911  90.189  88.422  1.00  0.00     0.005 C 
HETATM   19  C   LIG     1      92.752  89.447  87.748  1.00  0.00     0.032 C 
HETATM   20  C   LIG     1      92.268  88.294  88.641  1.00  0.00     0.142 C 
HETATM   21  O   LIG     1      91.901  88.796  89.922  1.00  0.00    -0.355 OA
ENDBRANCH  15  16
ENDBRANCH  13  15
ENDBRANCH   1  13
TORSDOF 5
ENDMDL
MODEL 8
REMARK VINA RESULT:      -0.0     12.112     13.201
REMARK  5 active torsions:
REMARK  status: ('A' for Active; 'I' for Inactive)
REMARK    1  A    between atoms: S_1  and  C_4 
REMARK    2  A    between atoms: S_1  and  N_13 
REMARK    3  A    between atoms: C_7  and  N_10 
REMARK    4  A    between atoms: N_13  and  C_15 
REMARK    5  A    between atoms: C_15  and  C_16 
ROOT
HETATM    1  S   LIG     1      84.399  93.148  93.432  1.00  0.00     0.261 S 
HETATM    2  O   LIG     1      85.188  92.493  92.376  1.00  0.00    -0.200 OA
HETATM    3  O   LIG     1      82.976  92.824  93.613  1.00  0.00    -0.200 OA
ENDROOT
BRANCH   1   4
HETATM    4  C   LIG     1      84.549  94.923  93.259  1.00  0.00     0.103 A 
HETATM    5  C   LIG     1      85.821  95.528  93.302  1.00  0.00     0.014 A 
HETATM    6  C   LIG     1      85.929  96.928  93.186  1.00  0.00     0.017 A 
HETATM    7  C   LIG     1      84.771  97.716  93.025  1.00  0.00     0.050 A 
HETATM    8  C   LIG     1      83.502  97.103  92.977  1.00  0.00     0.017 A 
HETATM    9  C   LIG     1      83.389  95.704  93.091  1.00  0.00     0.014 A 
BRANCH   7  10
HETATM   10  N   LIG     1      84.880  99.101  92.916  1.00  0.00    -0.398 N 
HETATM   11  H   LIG     1      84.075  99.702  93.023  1.00  0.00     0.156 HD
HETATM   12  H   LIG     1      85.781  99.554  92.861  1.00  0.00     0.156 HD
ENDBRANCH   7  10
ENDBRANCH   1   4
BRANCH   1  13
HETATM   13  N   LIG     1      85.185  92.855  94.940  1.00  0.00    -0.297 N 
HETATM   14  H   LIG     1      85.922  92.153  94.874  1.00  0.00     0.173 HD
BRANCH  13  15
HETATM   15  C   LIG     1      84.399  92.775  96.175  1.00  0.00     0.138 C 
BRANCH  15  16
HETATM   16  C   LIG     1      84.426  94.109  96.939  1.00  0.00     0.138 C 
HETATM   17  C   LIG     1      83.216  95.014  96.622  1.00  0.00     0.032 C 
HETATM   18  C   LIG     1      83.353  96.372  97.318  1.00  0.00     0.005 C 
HETATM   19  C   LIG     1      84.710  96.995  96.974  1.00  0.00     0.032 C 
HETATM   20  C   LIG     1      85.843  96.000  97.271  1.00  0.00     0.142 C 
HETATM   21  O   LIG     1      85.621  94.788  96.558  1.00  0.00    -0.355 OA
ENDBRANCH  15  16
ENDBRANCH  13  15
ENDBRANCH   1  13
TORSDOF 5
ENDMDL
MODEL 9
REMARK VINA RESULT:      -0.0      7.648      8.949
REMARK  5 active torsions:
REMARK  status: ('A' for Active; 'I' for Inactive)
REMARK    1  A    between atoms: S_1  and  C_4 
REMARK    2  A    between atoms: S_1  and  N_13 
REMARK    3  A    between atoms: C_7  and  N_10 
REMARK    4  A    between atoms: N_13  and  C_15 
REMARK    5  A    between atoms: C_15  and  C_16 
ROOT
HETATM    1  S   LIG     1      92.440  94.446  89.023  1.00  0.00     0.261 S 
HETATM    2  O   LIG     1      92.810  95.856  88.817  1.00  0.00    -0.200 OA
HETATM    3  O   LIG     1      91.380  94.082  89.974  1.00  0.00    -0.200 OA
ENDROOT
BRANCH   1   4
HETATM    4  C   LIG     1      93.909  93.513  89.442  1.00  0.00     0.103 A 
HETATM    5  C   LIG     1      95.006  93.495  88.558  1.00  0.00     0.014 A 
HETATM    6  C   LIG     1      96.150  92.740  88.885  1.00  0.00     0.017 A 
HETATM    7  C   LIG     1      96.195  92.011  90.091  1.00  0.00     0.050 A 
HETATM    8  C   LIG     1      95.096  92.038  90.973  1.00  0.00     0.017 A 
HETATM    9  C   LIG     1      93.950  92.791  90.651  1.00  0.00     0.014 A 
BRANCH   7  10
HETATM   10  N   LIG     1      97.326  91.261  90.409  1.00  0.00    -0.398 N 
HETATM   11  H   LIG     1      97.685  91.227  91.353  1.00  0.00     0.156 HD
HETATM   12  H   LIG     1      97.740  90.626  89.742  1.00  0.00     0.156 HD
ENDBRANCH   7  10
ENDBRANCH   1   4
BRANCH   1  13
HETATM   13  N   LIG     1      92.004  93.783  87.491  1.00  0.00    -0.297 N 
HETATM   14  H   LIG     1      91.897  94.493  86.767  1.00  0.00     0.173 HD
BRANCH  13  15
HETATM   15  C   LIG     1      91.017  92.703  87.413  1.00  0.00     0.138 C 
BRANCH  15  16
HETATM   16  C   LIG     1      91.701  91.330  87.301  1.00  0.00     0.138 C 
HETATM   17  C   LIG     1      91.871  90.624  88.664  1.00  0.00     0.032 C 
HETATM   18  C   LIG     1      92.659  89.320  88.507  1.00  0.00     0.005 C 
HETATM   19  C   LIG     1      93.977  89.596  87.776  1.00  0.00     0.032 C 
HETATM   20  C   LIG     1      93.708  90.348  86.463  1.00  0.00     0.142 C 
HETATM   21  O   LIG     1      92.990  91.549  86.732  1.00  0.00    -0.355 OA
ENDBRANCH  15  16
ENDBRANCH  13  15
ENDBRANCH   1  13
TORSDOF 5
ENDMDL
