MODEL 1
REMARK VINA RESULT:      -0.0      0.000      0.000
REMARK  5 active torsions:
REMARK  status: ('A' for Active; 'I' for Inactive)
REMARK    1  A    between atoms: C_3  and  C_25 
REMARK    2  A    between atoms: C_17  and  O_32 
REMARK    3  A    between atoms: C_25  and  C_27 
REMARK    4  A    between atoms: C_27  and  C_28 
REMARK    5  A    between atoms: C_28  and  C_29 
ROOT
HETATM    1  O   LIG     1      91.425  90.140  92.804  1.00  0.00    -0.296 OA
HETATM    2  O   LIG     1      92.976  84.737  94.802  1.00  0.00    -0.296 OA
HETATM    3  C   LIG     1      88.201  86.691  94.245  1.00  0.00     0.000 C 
HETATM    4  C   LIG     1      88.572  85.503  95.176  1.00  0.00     0.000 C 
HETATM    5  C   LIG     1      89.550  87.001  93.517  1.00  0.00     0.007 C 
HETATM    6  C   LIG     1      89.711  88.467  93.008  1.00  0.00     0.065 C 
HETATM    7  C   LIG     1      91.172  88.940  92.881  1.00  0.00     0.151 C 
HETATM    8  C   LIG     1      90.108  85.407  95.221  1.00  0.00     0.000 C 
HETATM    9  C   LIG     1      90.600  86.753  94.657  1.00  0.00     0.007 C 
HETATM   10  C   LIG     1      92.260  87.843  92.891  1.00  0.00     0.065 C 
HETATM   11  C   LIG     1      92.084  86.899  94.138  1.00  0.00     0.065 C 
HETATM   12  C   LIG     1      93.764  88.231  92.623  1.00  0.00     0.007 C 
HETATM   13  C   LIG     1      94.243  89.193  93.755  1.00  0.00     0.003 C 
HETATM   14  C   LIG     1      95.744  89.218  94.001  1.00  0.00     0.029 C 
HETATM   15  C   LIG     1      92.924  85.630  93.959  1.00  0.00     0.151 C 
HETATM   16  C   LIG     1      94.615  86.882  92.473  1.00  0.00     0.010 C 
HETATM   17  C   LIG     1      96.239  87.799  94.274  1.00  0.00     0.111 C 
HETATM   18  C   LIG     1      93.783  85.580  92.705  1.00  0.00     0.065 C 
HETATM   19  C   LIG     1      96.102  86.879  93.031  1.00  0.00     0.025 C 
HETATM   20  C   LIG     1      96.577  85.459  93.433  1.00  0.00     0.002 C 
HETATM   21  C   LIG     1      97.073  87.331  91.904  1.00  0.00     0.002 C 
HETATM   22  C   LIG     1      93.876  88.994  91.274  1.00  0.00     0.000 C 
HETATM   23  C   LIG     1      89.684  85.991  92.331  1.00  0.00     0.000 C 
HETATM   24  C   LIG     1      90.491  87.757  95.854  1.00  0.00     0.000 C 
ENDROOT
BRANCH   3  25
HETATM   25  C   LIG     1      86.905  86.426  93.413  1.00  0.00     0.001 C 
HETATM   26  C   LIG     1      86.141  85.211  93.984  1.00  0.00     0.000 C 
BRANCH  25  27
HETATM   27  C   LIG     1      85.964  87.658  93.343  1.00  0.00     0.011 C 
BRANCH  27  28
HETATM   28  C   LIG     1      86.119  88.580  92.109  1.00  0.00     0.098 C 
BRANCH  28  29
HETATM   29  C   LIG     1      86.363  87.814  90.803  1.00  0.00     0.185 C 
HETATM   30  O   LIG     1      87.491  87.904  90.270  1.00  0.00    -0.647 OA
HETATM   31  O   LIG     1      85.400  87.157  90.349  1.00  0.00    -0.647 OA
ENDBRANCH  28  29
ENDBRANCH  27  28
ENDBRANCH  25  27
ENDBRANCH   3  25
BRANCH  17  32
HETATM   32  O   LIG     1      97.576  87.885  94.730  1.00  0.00    -0.385 OA
HETATM   33  H   LIG     1      98.014  87.073  94.526  1.00  0.00     0.210 HD
ENDBRANCH  17  32
TORSDOF 5
ENDMDL
MODEL 2
REMARK VINA RESULT:      -0.0      2.911      7.575
REMARK  5 active torsions:
REMARK  status: ('A' for Active; 'I' for Inactive)
REMARK    1  A    between atoms: C_3  and  C_25 
REMARK    2  A    between atoms: C_17  and  O_32 
REMARK    3  A    between atoms: C_25  and  C_27 
REMARK    4  A    between atoms: C_27  and  C_28 
REMARK    5  A    between atoms: C_28  and  C_29 
ROOT
HETATM    1  O   LIG     1      88.730  84.929  91.822  1.00  0.00    -0.296 OA
HETATM    2  O   LIG     1      87.131  90.674  91.993  1.00  0.00    -0.296 OA
HETATM    3  C   LIG     1      89.349  87.859  95.746  1.00  0.00     0.000 C 
HETATM    4  C   LIG     1      88.546  89.170  95.975  1.00  0.00     0.000 C 
HETATM    5  C   LIG     1      89.378  87.733  94.187  1.00  0.00     0.007 C 
HETATM    6  C   LIG     1      89.535  86.281  93.639  1.00  0.00     0.065 C 
HETATM    7  C   LIG     1      88.955  86.066  92.228  1.00  0.00     0.151 C 
HETATM    8  C   LIG     1      87.869  89.542  94.643  1.00  0.00     0.000 C 
HETATM    9  C   LIG     1      87.954  88.262  93.792  1.00  0.00     0.007 C 
HETATM   10  C   LIG     1      88.656  87.337  91.401  1.00  0.00     0.065 C 
HETATM   11  C   LIG     1      87.764  88.338  92.225  1.00  0.00     0.065 C 
HETATM   12  C   LIG     1      88.196  87.201  89.898  1.00  0.00     0.007 C 
HETATM   13  C   LIG     1      86.833  86.442  89.858  1.00  0.00     0.003 C 
HETATM   14  C   LIG     1      85.973  86.706  88.632  1.00  0.00     0.029 C 
HETATM   15  C   LIG     1      87.765  89.716  91.556  1.00  0.00     0.151 C 
HETATM   16  C   LIG     1      88.179  88.662  89.242  1.00  0.00     0.010 C 
HETATM   17  C   LIG     1      85.741  88.209  88.487  1.00  0.00     0.111 C 
HETATM   18  C   LIG     1      88.527  89.811  90.243  1.00  0.00     0.065 C 
HETATM   19  C   LIG     1      87.051  88.978  88.169  1.00  0.00     0.025 C 
HETATM   20  C   LIG     1      86.711  90.490  88.100  1.00  0.00     0.002 C 
HETATM   21  C   LIG     1      87.573  88.611  86.752  1.00  0.00     0.002 C 
HETATM   22  C   LIG     1      89.233  86.357  89.107  1.00  0.00     0.000 C 
HETATM   23  C   LIG     1      90.537  88.645  93.666  1.00  0.00     0.000 C 
HETATM   24  C   LIG     1      86.776  87.361  94.296  1.00  0.00     0.000 C 
ENDROOT
BRANCH   3  25
HETATM   25  C   LIG     1      90.682  87.816  96.559  1.00  0.00     0.001 C 
HETATM   26  C   LIG     1      90.687  88.920  97.641  1.00  0.00     0.000 C 
BRANCH  25  27
HETATM   27  C   LIG     1      90.953  86.434  97.213  1.00  0.00     0.011 C 
BRANCH  27  28
HETATM   28  C   LIG     1      91.844  85.452  96.415  1.00  0.00     0.098 C 
BRANCH  28  29
HETATM   29  C   LIG     1      93.025  86.135  95.713  1.00  0.00     0.185 C 
HETATM   30  O   LIG     1      93.008  86.201  94.463  1.00  0.00    -0.647 OA
HETATM   31  O   LIG     1      93.940  86.568  96.446  1.00  0.00    -0.647 OA
ENDBRANCH  28  29
ENDBRANCH  27  28
ENDBRANCH  25  27
ENDBRANCH   3  25
BRANCH  17  32
HETATM   32  O   LIG     1      84.753  88.402  87.492  1.00  0.00    -0.385 OA
HETATM   33  H   LIG     1      85.186  88.522  86.661  1.00  0.00     0.210 HD
ENDBRANCH  17  32
TORSDOF 5
ENDMDL
MODEL 3
REMARK VINA RESULT:      -0.0      5.747      8.776
REMARK  5 active torsions:
REMARK  status: ('A' for Active; 'I' for Inactive)
REMARK    1  A    between atoms: C_3  and  C_25 
REMARK    2  A    between atoms: C_17  and  O_32 
REMARK    3  A    between atoms: C_25  and  C_27 
REMARK    4  A    between atoms: C_27  and  C_28 
REMARK    5  A    between atoms: C_28  and  C_29 
ROOT
HETATM    1  O   LIG     1      87.075  86.967  87.057  1.00  0.00    -0.296 OA
HETATM    2  O   LIG     1      86.716  83.464  91.873  1.00  0.00    -0.296 OA
HETATM    3  C   LIG     1      88.556  82.260  87.172  1.00  0.00     0.000 C 
HETATM    4  C   LIG     1      88.060  81.228  88.223  1.00  0.00     0.000 C 
HETATM    5  C   LIG     1      88.451  83.620  87.938  1.00  0.00     0.007 C 
HETATM    6  C   LIG     1      88.266  84.880  87.037  1.00  0.00     0.065 C 
HETATM    7  C   LIG     1      87.558  86.059  87.729  1.00  0.00     0.151 C 
HETATM    8  C   LIG     1      87.385  82.011  89.364  1.00  0.00     0.000 C 
HETATM    9  C   LIG     1      87.144  83.416  88.783  1.00  0.00     0.007 C 
HETATM   10  C   LIG     1      87.472  86.008  89.271  1.00  0.00     0.065 C 
HETATM   11  C   LIG     1      86.867  84.636  89.748  1.00  0.00     0.065 C 
HETATM   12  C   LIG     1      86.892  87.243  90.064  1.00  0.00     0.007 C 
HETATM   13  C   LIG     1      85.402  87.449  89.647  1.00  0.00     0.003 C 
HETATM   14  C   LIG     1      84.533  88.171  90.666  1.00  0.00     0.029 C 
HETATM   15  C   LIG     1      87.107  84.448  91.249  1.00  0.00     0.151 C 
HETATM   16  C   LIG     1      87.133  86.997  91.628  1.00  0.00     0.010 C 
HETATM   17  C   LIG     1      84.607  87.444  92.007  1.00  0.00     0.111 C 
HETATM   18  C   LIG     1      87.780  85.613  91.959  1.00  0.00     0.065 C 
HETATM   19  C   LIG     1      86.023  87.518  92.638  1.00  0.00     0.025 C 
HETATM   20  C   LIG     1      86.001  86.704  93.958  1.00  0.00     0.002 C 
HETATM   21  C   LIG     1      86.360  88.975  93.062  1.00  0.00     0.002 C 
HETATM   22  C   LIG     1      87.674  88.528  89.678  1.00  0.00     0.000 C 
HETATM   23  C   LIG     1      89.735  83.760  88.820  1.00  0.00     0.000 C 
HETATM   24  C   LIG     1      85.843  83.281  87.922  1.00  0.00     0.000 C 
ENDROOT
BRANCH   3  25
HETATM   25  C   LIG     1      89.905  81.841  86.503  1.00  0.00     0.001 C 
HETATM   26  C   LIG     1      90.212  80.356  86.800  1.00  0.00     0.000 C 
BRANCH  25  27
HETATM   27  C   LIG     1      89.928  82.090  84.971  1.00  0.00     0.011 C 
BRANCH  27  28
HETATM   28  C   LIG     1      90.539  83.429  84.495  1.00  0.00     0.098 C 
BRANCH  28  29
HETATM   29  C   LIG     1      91.784  83.846  85.288  1.00  0.00     0.185 C 
HETATM   30  O   LIG     1      91.695  84.839  86.044  1.00  0.00    -0.647 OA
HETATM   31  O   LIG     1      92.818  83.166  85.108  1.00  0.00    -0.647 OA
ENDBRANCH  28  29
ENDBRANCH  27  28
ENDBRANCH  25  27
ENDBRANCH   3  25
BRANCH  17  32
HETATM   32  O   LIG     1      83.615  87.991  92.855  1.00  0.00    -0.385 OA
HETATM   33  H   LIG     1      84.021  88.232  93.673  1.00  0.00     0.210 HD
ENDBRANCH  17  32
TORSDOF 5
ENDMDL
MODEL 4
REMARK VINA RESULT:      -0.0      7.501     10.362
REMARK  5 active torsions:
REMARK  status: ('A' for Active; 'I' for Inactive)
REMARK    1  A    between atoms: C_3  and  C_25 
REMARK    2  A    between atoms: C_17  and  O_32 
REMARK    3  A    between atoms: C_25  and  C_27 
REMARK    4  A    between atoms: C_27  and  C_28 
REMARK    5  A    between atoms: C_28  and  C_29 
ROOT
HETATM    1  O   LIG     1      97.025  88.538  88.846  1.00  0.00    -0.296 OA
HETATM    2  O   LIG     1      94.072  89.953  83.860  1.00  0.00    -0.296 OA
HETATM    3  C   LIG     1      94.300  92.618  88.307  1.00  0.00     0.000 C 
HETATM    4  C   LIG     1      93.184  92.772  87.235  1.00  0.00     0.000 C 
HETATM    5  C   LIG     1      95.289  91.605  87.641  1.00  0.00     0.007 C 
HETATM    6  C   LIG     1      96.153  90.767  88.634  1.00  0.00     0.065 C 
HETATM    7  C   LIG     1      96.623  89.410  88.079  1.00  0.00     0.151 C 
HETATM    8  C   LIG     1      93.367  91.641  86.206  1.00  0.00     0.000 C 
HETATM    9  C   LIG     1      94.307  90.635  86.895  1.00  0.00     0.007 C 
HETATM   10  C   LIG     1      96.527  89.215  86.550  1.00  0.00     0.065 C 
HETATM   11  C   LIG     1      95.079  89.557  86.036  1.00  0.00     0.065 C 
HETATM   12  C   LIG     1      97.120  87.911  85.889  1.00  0.00     0.007 C 
HETATM   13  C   LIG     1      96.343  86.674  86.437  1.00  0.00     0.003 C 
HETATM   14  C   LIG     1      96.356  85.444  85.542  1.00  0.00     0.029 C 
HETATM   15  C   LIG     1      95.083  89.704  84.511  1.00  0.00     0.151 C 
HETATM   16  C   LIG     1      97.079  88.089  84.297  1.00  0.00     0.010 C 
HETATM   17  C   LIG     1      95.836  85.818  84.155  1.00  0.00     0.111 C 
HETATM   18  C   LIG     1      96.411  89.420  83.825  1.00  0.00     0.065 C 
HETATM   19  C   LIG     1      96.784  86.800  83.416  1.00  0.00     0.025 C 
HETATM   20  C   LIG     1      96.136  87.154  82.053  1.00  0.00     0.002 C 
HETATM   21  C   LIG     1      98.128  86.103  83.062  1.00  0.00     0.002 C 
HETATM   22  C   LIG     1      98.612  87.751  86.292  1.00  0.00     0.000 C 
HETATM   23  C   LIG     1      96.205  92.418  86.668  1.00  0.00     0.000 C 
HETATM   24  C   LIG     1      93.384  89.804  87.848  1.00  0.00     0.000 C 
ENDROOT
BRANCH   3  25
HETATM   25  C   LIG     1      94.824  93.992  88.836  1.00  0.00     0.001 C 
HETATM   26  C   LIG     1      93.863  95.129  88.419  1.00  0.00     0.000 C 
BRANCH  25  27
HETATM   27  C   LIG     1      95.034  94.013  90.373  1.00  0.00     0.011 C 
BRANCH  27  28
HETATM   28  C   LIG     1      96.460  93.696  90.883  1.00  0.00     0.098 C 
BRANCH  28  29
HETATM   29  C   LIG     1      97.567  94.314  90.020  1.00  0.00     0.185 C 
HETATM   30  O   LIG     1      98.282  93.545  89.340  1.00  0.00    -0.647 OA
HETATM   31  O   LIG     1      97.689  95.557  90.071  1.00  0.00    -0.647 OA
ENDBRANCH  28  29
ENDBRANCH  27  28
ENDBRANCH  25  27
ENDBRANCH   3  25
BRANCH  17  32
HETATM   32  O   LIG     1      95.635  84.620  83.428  1.00  0.00    -0.385 OA
HETATM   33  H   LIG     1      96.201  83.955  83.788  1.00  0.00     0.210 HD
ENDBRANCH  17  32
TORSDOF 5
ENDMDL
MODEL 5
REMARK VINA RESULT:      -0.0      3.889      8.516
REMARK  5 active torsions:
REMARK  status: ('A' for Active; 'I' for Inactive)
REMARK    1  A    between atoms: C_3  and  C_25 
REMARK    2  A    between atoms: C_17  and  O_32 
REMARK    3  A    between atoms: C_25  and  C_27 
REMARK    4  A    between atoms: C_27  and  C_28 
REMARK    5  A    between atoms: C_28  and  C_29 
ROOT
HETATM    1  O   LIG     1      89.332  84.476  90.737  1.00  0.00    -0.296 OA
HETATM    2  O   LIG     1      90.511  89.158  87.233  1.00  0.00    -0.296 OA
HETATM    3  C   LIG     1      92.812  87.842  91.694  1.00  0.00     0.000 C 
HETATM    4  C   LIG     1      92.822  89.269  91.076  1.00  0.00     0.000 C 
HETATM    5  C   LIG     1      92.074  86.994  90.607  1.00  0.00     0.007 C 
HETATM    6  C   LIG     1      91.351  85.717  91.137  1.00  0.00     0.065 C 
HETATM    7  C   LIG     1      90.163  85.254  90.273  1.00  0.00     0.151 C 
HETATM    8  C   LIG     1      91.835  89.273  89.895  1.00  0.00     0.000 C 
HETATM    9  C   LIG     1      90.988  88.002  90.091  1.00  0.00     0.007 C 
HETATM   10  C   LIG     1      90.072  85.839  88.846  1.00  0.00     0.065 C 
HETATM   11  C   LIG     1      90.156  87.410  88.885  1.00  0.00     0.065 C 
HETATM   12  C   LIG     1      88.970  85.308  87.851  1.00  0.00     0.007 C 
HETATM   13  C   LIG     1      87.563  85.637  88.442  1.00  0.00     0.003 C 
HETATM   14  C   LIG     1      86.434  85.734  87.426  1.00  0.00     0.029 C 
HETATM   15  C   LIG     1      90.419  87.958  87.478  1.00  0.00     0.151 C 
HETATM   16  C   LIG     1      89.259  85.925  86.401  1.00  0.00     0.010 C 
HETATM   17  C   LIG     1      86.803  86.755  86.352  1.00  0.00     0.111 C 
HETATM   18  C   LIG     1      90.462  86.922  86.366  1.00  0.00     0.065 C 
HETATM   19  C   LIG     1      88.010  86.293  85.492  1.00  0.00     0.025 C 
HETATM   20  C   LIG     1      88.332  87.421  84.478  1.00  0.00     0.002 C 
HETATM   21  C   LIG     1      87.626  85.061  84.625  1.00  0.00     0.002 C 
HETATM   22  C   LIG     1      89.081  83.764  87.721  1.00  0.00     0.000 C 
HETATM   23  C   LIG     1      93.127  86.615  89.515  1.00  0.00     0.000 C 
HETATM   24  C   LIG     1      89.916  88.391  91.165  1.00  0.00     0.000 C 
ENDROOT
BRANCH   3  25
HETATM   25  C   LIG     1      94.218  87.398  92.212  1.00  0.00     0.001 C 
HETATM   26  C   LIG     1      95.168  88.614  92.296  1.00  0.00     0.000 C 
BRANCH  25  27
HETATM   27  C   LIG     1      94.161  86.676  93.585  1.00  0.00     0.011 C 
BRANCH  27  28
HETATM   28  C   LIG     1      94.097  85.130  93.554  1.00  0.00     0.098 C 
BRANCH  28  29
HETATM   29  C   LIG     1      94.991  84.505  92.474  1.00  0.00     0.185 C 
HETATM   30  O   LIG     1      94.436  83.956  91.497  1.00  0.00    -0.647 OA
HETATM   31  O   LIG     1      96.225  84.577  92.658  1.00  0.00    -0.647 OA
ENDBRANCH  28  29
ENDBRANCH  27  28
ENDBRANCH  25  27
ENDBRANCH   3  25
BRANCH  17  32
HETATM   32  O   LIG     1      85.650  86.997  85.568  1.00  0.00    -0.385 OA
HETATM   33  H   LIG     1      85.301  87.843  85.803  1.00  0.00     0.210 HD
ENDBRANCH  17  32
TORSDOF 5
ENDMDL
MODEL 6
REMARK VINA RESULT:      -0.0      4.850      7.563
REMARK  5 active torsions:
REMARK  status: ('A' for Active; 'I' for Inactive)
REMARK    1  A    between atoms: C_3  and  C_25 
REMARK    2  A    between atoms: C_17  and  O_32 
REMARK    3  A    between atoms: C_25  and  C_27 
REMARK    4  A    between atoms: C_27  and  C_28 
REMARK    5  A    between atoms: C_28  and  C_29 
ROOT
HETATM    1  O   LIG     1      95.377  87.684  94.915  1.00  0.00    -0.296 OA
HETATM    2  O   LIG     1      99.783  90.708  92.264  1.00  0.00    -0.296 OA
HETATM    3  C   LIG     1      96.916  86.855  90.299  1.00  0.00     0.000 C 
HETATM    4  C   LIG     1      98.313  87.282  89.768  1.00  0.00     0.000 C 
HETATM    5  C   LIG     1      96.624  87.914  91.413  1.00  0.00     0.007 C 
HETATM    6  C   LIG     1      95.652  87.445  92.540  1.00  0.00     0.065 C 
HETATM    7  C   LIG     1      95.844  88.167  93.886  1.00  0.00     0.151 C 
HETATM    8  C   LIG     1      98.906  88.288  90.772  1.00  0.00     0.000 C 
HETATM    9  C   LIG     1      98.047  88.126  92.040  1.00  0.00     0.007 C 
HETATM   10  C   LIG     1      96.661  89.478  93.861  1.00  0.00     0.065 C 
HETATM   11  C   LIG     1      98.045  89.255  93.145  1.00  0.00     0.065 C 
HETATM   12  C   LIG     1      96.781  90.351  95.169  1.00  0.00     0.007 C 
HETATM   13  C   LIG     1      97.516  89.515  96.263  1.00  0.00     0.003 C 
HETATM   14  C   LIG     1      98.219  90.325  97.341  1.00  0.00     0.029 C 
HETATM   15  C   LIG     1      98.688  90.605  92.811  1.00  0.00     0.151 C 
HETATM   16  C   LIG     1      97.484  91.739  94.787  1.00  0.00     0.010 C 
HETATM   17  C   LIG     1      99.191  91.306  96.690  1.00  0.00     0.111 C 
HETATM   18  C   LIG     1      97.930  91.833  93.292  1.00  0.00     0.065 C 
HETATM   19  C   LIG     1      98.460  92.392  95.857  1.00  0.00     0.025 C 
HETATM   20  C   LIG     1      99.536  93.294  95.198  1.00  0.00     0.002 C 
HETATM   21  C   LIG     1      97.644  93.338  96.783  1.00  0.00     0.002 C 
HETATM   22  C   LIG     1      95.363  90.690  95.704  1.00  0.00     0.000 C 
HETATM   23  C   LIG     1      96.068  89.194  90.706  1.00  0.00     0.000 C 
HETATM   24  C   LIG     1      98.622  86.860  92.760  1.00  0.00     0.000 C 
ENDROOT
BRANCH   3  25
HETATM   25  C   LIG     1      95.880  86.618  89.153  1.00  0.00     0.001 C 
HETATM   26  C   LIG     1      96.601  86.529  87.789  1.00  0.00     0.000 C 
BRANCH  25  27
HETATM   27  C   LIG     1      95.006  85.355  89.373  1.00  0.00     0.011 C 
BRANCH  27  28
HETATM   28  C   LIG     1      93.636  85.571  90.060  1.00  0.00     0.098 C 
BRANCH  28  29
HETATM   29  C   LIG     1      92.916  86.844  89.597  1.00  0.00     0.185 C 
HETATM   30  O   LIG     1      92.805  87.786  90.413  1.00  0.00    -0.647 OA
HETATM   31  O   LIG     1      92.473  86.845  88.428  1.00  0.00    -0.647 OA
ENDBRANCH  28  29
ENDBRANCH  27  28
ENDBRANCH  25  27
ENDBRANCH   3  25
BRANCH  17  32
HETATM   32  O   LIG     1      99.993  91.867  97.712  1.00  0.00    -0.385 OA
HETATM   33  H   LIG     1      99.693  92.747  97.878  1.00  0.00     0.210 HD
ENDBRANCH  17  32
TORSDOF 5
ENDMDL
MODEL 7
REMARK VINA RESULT:      -0.0      8.857     12.315
REMARK  5 active torsions:
REMARK  status: ('A' for Active; 'I' for Inactive)
REMARK    1  A    between atoms: C_3  and  C_25 
REMARK    2  A    between atoms: C_17  and  O_32 
REMARK    3  A    between atoms: C_25  and  C_27 
REMARK    4  A    between atoms: C_27  and  C_28 
REMARK    5  A    between atoms: C_28  and  C_29 
ROOT
HETATM    1  O   LIG     1      85.323  90.230  86.480  1.00  0.00    -0.296 OA
HETATM    2  O   LIG     1      88.369  95.322  85.860  1.00  0.00    -0.296 OA
HETATM    3  C   LIG     1      90.088  90.469  85.213  1.00  0.00     0.000 C 
HETATM    4  C   LIG     1      90.992  91.701  85.494  1.00  0.00     0.000 C 
HETATM    5  C   LIG     1      88.663  91.101  85.080  1.00  0.00     0.007 C 
HETATM    6  C   LIG     1      87.476  90.146  85.415  1.00  0.00     0.065 C 
HETATM    7  C   LIG     1      86.199  90.862  85.893  1.00  0.00     0.151 C 
HETATM    8  C   LIG     1      90.072  92.883  85.853  1.00  0.00     0.000 C 
HETATM    9  C   LIG     1      88.710  92.236  86.163  1.00  0.00     0.007 C 
HETATM   10  C   LIG     1      86.111  92.380  85.621  1.00  0.00     0.065 C 
HETATM   11  C   LIG     1      87.396  93.114  86.157  1.00  0.00     0.065 C 
HETATM   12  C   LIG     1      84.779  93.158  85.949  1.00  0.00     0.007 C 
HETATM   13  C   LIG     1      84.515  93.073  87.485  1.00  0.00     0.003 C 
HETATM   14  C   LIG     1      83.654  94.186  88.062  1.00  0.00     0.029 C 
HETATM   15  C   LIG     1      87.469  94.533  85.583  1.00  0.00     0.151 C 
HETATM   16  C   LIG     1      84.904  94.644  85.362  1.00  0.00     0.010 C 
HETATM   17  C   LIG     1      84.267  95.540  87.710  1.00  0.00     0.111 C 
HETATM   18  C   LIG     1      86.293  94.954  84.715  1.00  0.00     0.065 C 
HETATM   19  C   LIG     1      84.229  95.823  86.184  1.00  0.00     0.025 C 
HETATM   20  C   LIG     1      84.923  97.187  85.935  1.00  0.00     0.002 C 
HETATM   21  C   LIG     1      82.765  96.014  85.697  1.00  0.00     0.002 C 
HETATM   22  C   LIG     1      83.584  92.480  85.224  1.00  0.00     0.000 C 
HETATM   23  C   LIG     1      88.530  91.651  83.621  1.00  0.00     0.000 C 
HETATM   24  C   LIG     1      88.835  91.711  87.633  1.00  0.00     0.000 C 
ENDROOT
BRANCH   3  25
HETATM   25  C   LIG     1      90.648  89.555  84.075  1.00  0.00     0.001 C 
HETATM   26  C   LIG     1      92.119  89.920  83.770  1.00  0.00     0.000 C 
BRANCH  25  27
HETATM   27  C   LIG     1      90.534  88.042  84.398  1.00  0.00     0.011 C 
BRANCH  27  28
HETATM   28  C   LIG     1      89.281  87.310  83.857  1.00  0.00     0.098 C 
BRANCH  28  29
HETATM   29  C   LIG     1      88.878  87.754  82.446  1.00  0.00     0.185 C 
HETATM   30  O   LIG     1      87.820  88.409  82.315  1.00  0.00    -0.647 OA
HETATM   31  O   LIG     1      89.636  87.413  81.512  1.00  0.00    -0.647 OA
ENDBRANCH  28  29
ENDBRANCH  27  28
ENDBRANCH  25  27
ENDBRANCH   3  25
BRANCH  17  32
HETATM   32  O   LIG     1      83.586  96.533  88.454  1.00  0.00    -0.385 OA
HETATM   33  H   LIG     1      84.140  96.800  89.171  1.00  0.00     0.210 HD
ENDBRANCH  17  32
TORSDOF 5
ENDMDL
MODEL 8
REMARK VINA RESULT:      -0.0      3.313      5.072
REMARK  5 active torsions:
REMARK  status: ('A' for Active; 'I' for Inactive)
REMARK    1  A    between atoms: C_3  and  C_25 
REMARK    2  A    between atoms: C_17  and  O_32 
REMARK    3  A    between atoms: C_25  and  C_27 
REMARK    4  A    between atoms: C_27  and  C_28 
REMARK    5  A    between atoms: C_28  and  C_29 
ROOT
HETATM    1  O   LIG     1      92.123  85.125  94.813  1.00  0.00    -0.296 OA
HETATM    2  O   LIG     1      96.335  82.471  91.524  1.00  0.00    -0.296 OA
HETATM    3  C   LIG     1      91.430  83.523  90.196  1.00  0.00     0.000 C 
HETATM    4  C   LIG     1      92.324  82.450  89.514  1.00  0.00     0.000 C 
HETATM    5  C   LIG     1      92.405  84.196  91.216  1.00  0.00     0.007 C 
HETATM    6  C   LIG     1      91.723  84.848  92.459  1.00  0.00     0.065 C 
HETATM    7  C   LIG     1      92.623  84.935  93.706  1.00  0.00     0.151 C 
HETATM    8  C   LIG     1      93.603  82.301  90.361  1.00  0.00     0.000 C 
HETATM    9  C   LIG     1      93.261  82.974  91.703  1.00  0.00     0.007 C 
HETATM   10  C   LIG     1      94.139  84.742  93.483  1.00  0.00     0.065 C 
HETATM   11  C   LIG     1      94.418  83.415  92.684  1.00  0.00     0.065 C 
HETATM   12  C   LIG     1      95.140  84.958  94.682  1.00  0.00     0.007 C 
HETATM   13  C   LIG     1      94.825  83.908  95.792  1.00  0.00     0.003 C 
HETATM   14  C   LIG     1      95.981  83.575  96.724  1.00  0.00     0.029 C 
HETATM   15  C   LIG     1      95.859  83.406  92.165  1.00  0.00     0.151 C 
HETATM   16  C   LIG     1      96.635  84.912  94.107  1.00  0.00     0.010 C 
HETATM   17  C   LIG     1      97.185  83.123  95.901  1.00  0.00     0.111 C 
HETATM   18  C   LIG     1      96.716  84.593  92.579  1.00  0.00     0.065 C 
HETATM   19  C   LIG     1      97.760  84.267  95.023  1.00  0.00     0.025 C 
HETATM   20  C   LIG     1      98.935  83.687  94.193  1.00  0.00     0.002 C 
HETATM   21  C   LIG     1      98.395  85.374  95.911  1.00  0.00     0.002 C 
HETATM   22  C   LIG     1      94.930  86.371  95.292  1.00  0.00     0.000 C 
HETATM   23  C   LIG     1      93.243  85.258  90.431  1.00  0.00     0.000 C 
HETATM   24  C   LIG     1      92.446  81.900  92.499  1.00  0.00     0.000 C 
ENDROOT
BRANCH   3  25
HETATM   25  C   LIG     1      90.646  84.399  89.166  1.00  0.00     0.001 C 
HETATM   26  C   LIG     1      90.692  83.750  87.765  1.00  0.00     0.000 C 
BRANCH  25  27
HETATM   27  C   LIG     1      89.174  84.658  89.582  1.00  0.00     0.011 C 
BRANCH  27  28
HETATM   28  C   LIG     1      88.891  85.971  90.351  1.00  0.00     0.098 C 
BRANCH  28  29
HETATM   29  C   LIG     1      89.686  87.171  89.821  1.00  0.00     0.185 C 
HETATM   30  O   LIG     1      90.593  87.641  90.544  1.00  0.00    -0.647 OA
HETATM   31  O   LIG     1      89.358  87.610  88.698  1.00  0.00    -0.647 OA
ENDBRANCH  28  29
ENDBRANCH  27  28
ENDBRANCH  25  27
ENDBRANCH   3  25
BRANCH  17  32
HETATM   32  O   LIG     1      98.150  82.598  96.793  1.00  0.00    -0.385 OA
HETATM   33  H   LIG     1      98.960  83.067  96.668  1.00  0.00     0.210 HD
ENDBRANCH  17  32
TORSDOF 5
ENDMDL
MODEL 9
REMARK VINA RESULT:      -0.0      2.913      6.787
REMARK  5 active torsions:
REMARK  status: ('A' for Active; 'I' for Inactive)
REMARK    1  A    between atoms: C_3  and  C_25 
REMARK    2  A    between atoms: C_17  and  O_32 
REMARK    3  A    between atoms: C_25  and  C_27 
REMARK    4  A    between atoms: C_27  and  C_28 
REMARK    5  A    between atoms: C_28  and  C_29 
ROOT
HETATM    1  O   LIG     1      93.822  87.480  93.549  1.00  0.00    -0.296 OA
HETATM    2  O   LIG     1      88.050  88.767  92.763  1.00  0.00    -0.296 OA
HETATM    3  C   LIG     1      92.103  90.416  89.973  1.00  0.00     0.000 C 
HETATM    4  C   LIG     1      90.718  91.119  90.029  1.00  0.00     0.000 C 
HETATM    5  C   LIG     1      91.878  89.129  90.833  1.00  0.00     0.007 C 
HETATM    6  C   LIG     1      93.162  88.537  91.495  1.00  0.00     0.065 C 
HETATM    7  C   LIG     1      92.899  87.722  92.775  1.00  0.00     0.151 C 
HETATM    8  C   LIG     1      89.897  90.446  91.145  1.00  0.00     0.000 C 
HETATM    9  C   LIG     1      90.932  89.657  91.968  1.00  0.00     0.007 C 
HETATM   10  C   LIG     1      91.443  87.272  93.025  1.00  0.00     0.065 C 
HETATM   11  C   LIG     1      90.460  88.499  92.933  1.00  0.00     0.065 C 
HETATM   12  C   LIG     1      91.116  86.315  94.235  1.00  0.00     0.007 C 
HETATM   13  C   LIG     1      91.478  87.048  95.565  1.00  0.00     0.003 C 
HETATM   14  C   LIG     1      90.736  86.563  96.801  1.00  0.00     0.029 C 
HETATM   15  C   LIG     1      89.013  88.006  92.830  1.00  0.00     0.151 C 
HETATM   16  C   LIG     1      89.589  85.847  94.111  1.00  0.00     0.010 C 
HETATM   17  C   LIG     1      89.231  86.637  96.554  1.00  0.00     0.111 C 
HETATM   18  C   LIG     1      88.822  86.500  92.916  1.00  0.00     0.065 C 
HETATM   19  C   LIG     1      88.766  85.645  95.454  1.00  0.00     0.025 C 
HETATM   20  C   LIG     1      87.242  85.844  95.246  1.00  0.00     0.002 C 
HETATM   21  C   LIG     1      88.925  84.176  95.937  1.00  0.00     0.002 C 
HETATM   22  C   LIG     1      91.995  85.037  94.144  1.00  0.00     0.000 C 
HETATM   23  C   LIG     1      91.196  88.065  89.912  1.00  0.00     0.000 C 
HETATM   24  C   LIG     1      91.595  90.719  92.909  1.00  0.00     0.000 C 
ENDROOT
BRANCH   3  25
HETATM   25  C   LIG     1      92.663  90.298  88.519  1.00  0.00     0.001 C 
HETATM   26  C   LIG     1      91.867  91.215  87.562  1.00  0.00     0.000 C 
BRANCH  25  27
HETATM   27  C   LIG     1      94.178  90.620  88.422  1.00  0.00     0.011 C 
BRANCH  27  28
HETATM   28  C   LIG     1      95.149  89.417  88.493  1.00  0.00     0.098 C 
BRANCH  28  29
HETATM   29  C   LIG     1      94.647  88.184  87.730  1.00  0.00     0.185 C 
HETATM   30  O   LIG     1      94.300  87.182  88.394  1.00  0.00    -0.647 OA
HETATM   31  O   LIG     1      94.636  88.263  86.482  1.00  0.00    -0.647 OA
ENDBRANCH  28  29
ENDBRANCH  27  28
ENDBRANCH  25  27
ENDBRANCH   3  25
BRANCH  17  32
HETATM   32  O   LIG     1      88.575  86.412  97.788  1.00  0.00    -0.385 OA
HETATM   33  H   LIG     1      88.942  85.636  98.184  1.00  0.00     0.210 HD
ENDBRANCH  17  32
TORSDOF 5
ENDMDL
