MODEL 1
REMARK VINA RESULT:      -0.0      0.000      0.000
REMARK  4 active torsions:
REMARK  status: ('A' for Active; 'I' for Inactive)
REMARK    1  A    between atoms: N_1  and  C_20 
REMARK    2  A    between atoms: C_20  and  C_21 
REMARK    3  A    between atoms: C_21  and  O_22 
REMARK    4  A    between atoms: O_22  and  C_23 
ROOT
HETATM    1  N   LIG     1      91.290  92.550  89.263  1.00  0.00    -0.308 N 
HETATM    2  N   LIG     1      90.845  93.187  91.948  1.00  0.00    -0.236 NA
HETATM    3  N   LIG     1      93.622  92.444  89.725  1.00  0.00    -0.173 NA
HETATM    4  O   LIG     1      93.085  93.323  93.690  1.00  0.00    -0.265 OA
HETATM    5  N   LIG     1      94.425  92.833  91.927  1.00  0.00    -0.272 N 
HETATM    6  H   LIG     1      95.224  92.887  92.541  1.00  0.00     0.174 HD
HETATM    7  O   LIG     1      95.857  92.362  90.286  1.00  0.00    -0.244 OA
HETATM    8  C   LIG     1      88.843  92.879  88.796  1.00  0.00     0.014 A 
HETATM    9  C   LIG     1      89.964  92.847  89.665  1.00  0.00     0.079 A 
HETATM   10  C   LIG     1      87.553  93.177  89.284  1.00  0.00    -0.024 A 
HETATM   11  C   LIG     1      89.771  93.149  91.041  1.00  0.00     0.097 A 
HETATM   12  C   LIG     1      87.370  93.455  90.658  1.00  0.00    -0.024 A 
HETATM   13  C   LIG     1      88.481  93.443  91.523  1.00  0.00     0.016 A 
HETATM   14  C   LIG     1      94.691  92.538  90.628  1.00  0.00     0.350 A 
HETATM   15  C   LIG     1      92.395  92.641  90.118  1.00  0.00     0.171 A 
HETATM   16  C   LIG     1      92.045  92.982  91.552  1.00  0.00     0.171 A 
HETATM   17  C   LIG     1      93.220  93.064  92.495  1.00  0.00     0.282 A 
HETATM   18  C   LIG     1      86.380  93.196  88.320  1.00  0.00     0.031 C 
HETATM   19  C   LIG     1      85.994  93.778  91.216  1.00  0.00     0.031 C 
ENDROOT
BRANCH   1  20
HETATM   20  C   LIG     1      91.474  92.170  87.855  1.00  0.00     0.140 C 
BRANCH  20  21
HETATM   21  C   LIG     1      91.636  90.654  87.684  1.00  0.00     0.176 C 
BRANCH  21  22
HETATM   22  O   LIG     1      90.393  90.097  87.290  1.00  0.00    -0.300 OA
BRANCH  22  23
HETATM   23  C   LIG     1      89.674  89.393  88.177  1.00  0.00     0.273 C 
HETATM   24  C   LIG     1      88.197  89.331  87.810  1.00  0.00     0.106 C 
HETATM   25  O   LIG     1      90.109  88.842  89.187  1.00  0.00    -0.264 OA
ENDBRANCH  22  23
ENDBRANCH  21  22
ENDBRANCH  20  21
ENDBRANCH   1  20
TORSDOF 4
ENDMDL
MODEL 2
REMARK VINA RESULT:      -0.0      3.377      6.665
REMARK  4 active torsions:
REMARK  status: ('A' for Active; 'I' for Inactive)
REMARK    1  A    between atoms: N_1  and  C_20 
REMARK    2  A    between atoms: C_20  and  C_21 
REMARK    3  A    between atoms: C_21  and  O_22 
REMARK    4  A    between atoms: O_22  and  C_23 
ROOT
HETATM    1  N   LIG     1      90.850  89.509  88.458  1.00  0.00    -0.308 N 
HETATM    2  N   LIG     1      90.783  87.812  90.678  1.00  0.00    -0.236 NA
HETATM    3  N   LIG     1      88.855  88.476  87.670  1.00  0.00    -0.173 NA
HETATM    4  O   LIG     1      88.629  85.974  90.906  1.00  0.00    -0.265 OA
HETATM    5  N   LIG     1      87.822  86.750  88.932  1.00  0.00    -0.272 N 
HETATM    6  H   LIG     1      87.059  86.094  89.007  1.00  0.00     0.174 HD
HETATM    7  O   LIG     1      86.920  87.412  87.006  1.00  0.00    -0.244 OA
HETATM    8  C   LIG     1      93.061  90.414  89.235  1.00  0.00     0.014 A 
HETATM    9  C   LIG     1      91.927  89.572  89.375  1.00  0.00     0.079 A 
HETATM   10  C   LIG     1      94.086  90.419  90.204  1.00  0.00    -0.024 A 
HETATM   11  C   LIG     1      91.852  88.709  90.502  1.00  0.00     0.097 A 
HETATM   12  C   LIG     1      93.991  89.572  91.331  1.00  0.00    -0.024 A 
HETATM   13  C   LIG     1      92.876  88.721  91.469  1.00  0.00     0.016 A 
HETATM   14  C   LIG     1      87.823  87.541  87.829  1.00  0.00     0.350 A 
HETATM   15  C   LIG     1      89.802  88.586  88.559  1.00  0.00     0.171 A 
HETATM   16  C   LIG     1      89.853  87.722  89.803  1.00  0.00     0.171 A 
HETATM   17  C   LIG     1      88.720  86.735  89.943  1.00  0.00     0.282 A 
HETATM   18  C   LIG     1      95.281  91.337  90.017  1.00  0.00     0.031 C 
HETATM   19  C   LIG     1      95.076  89.555  92.394  1.00  0.00     0.031 C 
ENDROOT
BRANCH   1  20
HETATM   20  C   LIG     1      90.897  90.451  87.331  1.00  0.00     0.140 C 
BRANCH  20  21
HETATM   21  C   LIG     1      89.964  91.650  87.544  1.00  0.00     0.176 C 
BRANCH  21  22
HETATM   22  O   LIG     1      90.722  92.750  88.020  1.00  0.00    -0.300 OA
BRANCH  22  23
HETATM   23  C   LIG     1      90.625  93.111  89.308  1.00  0.00     0.273 C 
HETATM   24  C   LIG     1      91.836  93.902  89.783  1.00  0.00     0.106 C 
HETATM   25  O   LIG     1      89.686  92.859  90.062  1.00  0.00    -0.264 OA
ENDBRANCH  22  23
ENDBRANCH  21  22
ENDBRANCH  20  21
ENDBRANCH   1  20
TORSDOF 4
ENDMDL
MODEL 3
REMARK VINA RESULT:      -0.0      4.120      6.033
REMARK  4 active torsions:
REMARK  status: ('A' for Active; 'I' for Inactive)
REMARK    1  A    between atoms: N_1  and  C_20 
REMARK    2  A    between atoms: C_20  and  C_21 
REMARK    3  A    between atoms: C_21  and  O_22 
REMARK    4  A    between atoms: O_22  and  C_23 
ROOT
HETATM    1  N   LIG     1      89.668  95.271  88.581  1.00  0.00    -0.308 N 
HETATM    2  N   LIG     1      92.281  95.608  89.515  1.00  0.00    -0.236 NA
HETATM    3  N   LIG     1      88.964  96.980  90.082  1.00  0.00    -0.173 NA
HETATM    4  O   LIG     1      92.762  97.593  91.490  1.00  0.00    -0.265 OA
HETATM    5  N   LIG     1      90.545  98.076  91.475  1.00  0.00    -0.272 N 
HETATM    6  H   LIG     1      90.711  98.777  92.181  1.00  0.00     0.174 HD
HETATM    7  O   LIG     1      88.394  98.650  91.566  1.00  0.00    -0.244 OA
HETATM    8  C   LIG     1      90.437  93.339  87.172  1.00  0.00     0.014 A 
HETATM    9  C   LIG     1      90.668  94.399  88.087  1.00  0.00     0.079 A 
HETATM   10  C   LIG     1      91.497  92.521  86.725  1.00  0.00    -0.024 A 
HETATM   11  C   LIG     1      91.989  94.610  88.569  1.00  0.00     0.097 A 
HETATM   12  C   LIG     1      92.809  92.753  87.194  1.00  0.00    -0.024 A 
HETATM   13  C   LIG     1      93.044  93.793  88.116  1.00  0.00     0.016 A 
HETATM   14  C   LIG     1      89.259  97.935  91.065  1.00  0.00     0.350 A 
HETATM   15  C   LIG     1      89.903  96.233  89.572  1.00  0.00     0.171 A 
HETATM   16  C   LIG     1      91.352  96.342  90.001  1.00  0.00     0.171 A 
HETATM   17  C   LIG     1      91.630  97.388  91.053  1.00  0.00     0.282 A 
HETATM   18  C   LIG     1      91.206  91.400  85.743  1.00  0.00     0.031 C 
HETATM   19  C   LIG     1      93.972  91.893  86.731  1.00  0.00     0.031 C 
ENDROOT
BRANCH   1  20
HETATM   20  C   LIG     1      88.318  95.095  88.028  1.00  0.00     0.140 C 
BRANCH  20  21
HETATM   21  C   LIG     1      87.987  96.155  86.970  1.00  0.00     0.176 C 
BRANCH  21  22
HETATM   22  O   LIG     1      88.189  95.602  85.680  1.00  0.00    -0.300 OA
BRANCH  22  23
HETATM   23  C   LIG     1      89.260  95.975  84.963  1.00  0.00     0.273 C 
HETATM   24  C   LIG     1      89.631  94.951  83.897  1.00  0.00     0.106 C 
HETATM   25  O   LIG     1      89.903  97.014  85.108  1.00  0.00    -0.264 OA
ENDBRANCH  22  23
ENDBRANCH  21  22
ENDBRANCH  20  21
ENDBRANCH   1  20
TORSDOF 4
ENDMDL
MODEL 4
REMARK VINA RESULT:      -0.0      3.250      5.509
REMARK  4 active torsions:
REMARK  status: ('A' for Active; 'I' for Inactive)
REMARK    1  A    between atoms: N_1  and  C_20 
REMARK    2  A    between atoms: C_20  and  C_21 
REMARK    3  A    between atoms: C_21  and  O_22 
REMARK    4  A    between atoms: O_22  and  C_23 
ROOT
HETATM    1  N   LIG     1      91.907  93.432  90.083  1.00  0.00    -0.308 N 
HETATM    2  N   LIG     1      93.295  94.607  92.206  1.00  0.00    -0.236 NA
HETATM    3  N   LIG     1      90.739  92.083  91.659  1.00  0.00    -0.173 NA
HETATM    4  O   LIG     1      92.677  93.771  94.849  1.00  0.00    -0.265 OA
HETATM    5  N   LIG     1      91.171  92.311  93.983  1.00  0.00    -0.272 N 
HETATM    6  H   LIG     1      90.953  92.007  94.920  1.00  0.00     0.174 HD
HETATM    7  O   LIG     1      89.664  90.833  93.271  1.00  0.00    -0.244 OA
HETATM    8  C   LIG     1      93.317  94.733  88.461  1.00  0.00     0.014 A 
HETATM    9  C   LIG     1      92.924  94.368  89.775  1.00  0.00     0.079 A 
HETATM   10  C   LIG     1      94.337  95.684  88.245  1.00  0.00    -0.024 A 
HETATM   11  C   LIG     1      93.597  94.961  90.878  1.00  0.00     0.097 A 
HETATM   12  C   LIG     1      94.985  96.282  89.350  1.00  0.00    -0.024 A 
HETATM   13  C   LIG     1      94.612  95.912  90.657  1.00  0.00     0.016 A 
HETATM   14  C   LIG     1      90.485  91.700  92.983  1.00  0.00     0.350 A 
HETATM   15  C   LIG     1      91.620  93.003  91.385  1.00  0.00     0.171 A 
HETATM   16  C   LIG     1      92.420  93.709  92.462  1.00  0.00     0.171 A 
HETATM   17  C   LIG     1      92.111  93.277  93.874  1.00  0.00     0.282 A 
HETATM   18  C   LIG     1      94.724  96.048  86.823  1.00  0.00     0.031 C 
HETATM   19  C   LIG     1      96.085  97.310  89.152  1.00  0.00     0.031 C 
ENDROOT
BRANCH   1  20
HETATM   20  C   LIG     1      91.167  92.874  88.943  1.00  0.00     0.140 C 
BRANCH  20  21
HETATM   21  C   LIG     1      89.790  93.531  88.774  1.00  0.00     0.176 C 
BRANCH  21  22
HETATM   22  O   LIG     1      89.870  94.525  87.766  1.00  0.00    -0.300 OA
BRANCH  22  23
HETATM   23  C   LIG     1      89.865  95.820  88.114  1.00  0.00     0.273 C 
HETATM   24  C   LIG     1      90.480  96.713  87.045  1.00  0.00     0.106 C 
HETATM   25  O   LIG     1      89.424  96.286  89.165  1.00  0.00    -0.264 OA
ENDBRANCH  22  23
ENDBRANCH  21  22
ENDBRANCH  20  21
ENDBRANCH   1  20
TORSDOF 4
ENDMDL
MODEL 5
REMARK VINA RESULT:      -0.0      4.852      6.753
REMARK  4 active torsions:
REMARK  status: ('A' for Active; 'I' for Inactive)
REMARK    1  A    between atoms: N_1  and  C_20 
REMARK    2  A    between atoms: C_20  and  C_21 
REMARK    3  A    between atoms: C_21  and  O_22 
REMARK    4  A    between atoms: O_22  and  C_23 
ROOT
HETATM    1  N   LIG     1      86.681  89.004  92.043  1.00  0.00    -0.308 N 
HETATM    2  N   LIG     1      88.085  86.670  92.669  1.00  0.00    -0.236 NA
HETATM    3  N   LIG     1      88.026  90.178  93.618  1.00  0.00    -0.173 NA
HETATM    4  O   LIG     1      90.183  86.830  94.578  1.00  0.00    -0.265 OA
HETATM    5  N   LIG     1      89.729  89.039  94.821  1.00  0.00    -0.272 N 
HETATM    6  H   LIG     1      90.469  89.098  95.504  1.00  0.00     0.174 HD
HETATM    7  O   LIG     1      89.390  91.215  95.161  1.00  0.00    -0.244 OA
HETATM    8  C   LIG     1      85.161  87.672  90.551  1.00  0.00     0.014 A 
HETATM    9  C   LIG     1      86.265  87.795  91.434  1.00  0.00     0.079 A 
HETATM   10  C   LIG     1      84.821  86.426  89.982  1.00  0.00    -0.024 A 
HETATM   11  C   LIG     1      87.012  86.630  91.761  1.00  0.00     0.097 A 
HETATM   12  C   LIG     1      85.584  85.279  90.298  1.00  0.00    -0.024 A 
HETATM   13  C   LIG     1      86.671  85.390  91.188  1.00  0.00     0.016 A 
HETATM   14  C   LIG     1      89.063  90.194  94.562  1.00  0.00     0.350 A 
HETATM   15  C   LIG     1      87.699  89.077  93.001  1.00  0.00     0.171 A 
HETATM   16  C   LIG     1      88.403  87.760  93.260  1.00  0.00     0.171 A 
HETATM   17  C   LIG     1      89.519  87.820  94.275  1.00  0.00     0.282 A 
HETATM   18  C   LIG     1      83.635  86.339  89.038  1.00  0.00     0.031 C 
HETATM   19  C   LIG     1      85.247  83.923  89.701  1.00  0.00     0.031 C 
ENDROOT
BRANCH   1  20
HETATM   20  C   LIG     1      85.950  90.217  91.649  1.00  0.00     0.140 C 
BRANCH  20  21
HETATM   21  C   LIG     1      86.737  91.061  90.638  1.00  0.00     0.176 C 
BRANCH  21  22
HETATM   22  O   LIG     1      86.255  90.790  89.332  1.00  0.00    -0.300 OA
BRANCH  22  23
HETATM   23  C   LIG     1      86.994  90.046  88.496  1.00  0.00     0.273 C 
HETATM   24  C   LIG     1      86.160  89.408  87.393  1.00  0.00     0.106 C 
HETATM   25  O   LIG     1      88.210  89.868  88.567  1.00  0.00    -0.264 OA
ENDBRANCH  22  23
ENDBRANCH  21  22
ENDBRANCH  20  21
ENDBRANCH   1  20
TORSDOF 4
ENDMDL
MODEL 6
REMARK VINA RESULT:      -0.0      3.642      5.654
REMARK  4 active torsions:
REMARK  status: ('A' for Active; 'I' for Inactive)
REMARK    1  A    between atoms: N_1  and  C_20 
REMARK    2  A    between atoms: C_20  and  C_21 
REMARK    3  A    between atoms: C_21  and  O_22 
REMARK    4  A    between atoms: O_22  and  C_23 
ROOT
HETATM    1  N   LIG     1      90.001  90.638  93.692  1.00  0.00    -0.308 N 
HETATM    2  N   LIG     1      92.458  91.967  93.806  1.00  0.00    -0.236 NA
HETATM    3  N   LIG     1      90.033  90.479  96.067  1.00  0.00    -0.173 NA
HETATM    4  O   LIG     1      93.607  92.459  96.357  1.00  0.00    -0.265 OA
HETATM    5  N   LIG     1      91.838  91.401  97.304  1.00  0.00    -0.272 N 
HETATM    6  H   LIG     1      92.246  91.569  98.212  1.00  0.00     0.174 HD
HETATM    7  O   LIG     1      90.163  90.386  98.367  1.00  0.00    -0.244 OA
HETATM    8  C   LIG     1      90.126  90.655  91.182  1.00  0.00     0.014 A 
HETATM    9  C   LIG     1      90.633  90.973  92.469  1.00  0.00     0.079 A 
HETATM   10  C   LIG     1      90.819  91.037  90.014  1.00  0.00    -0.024 A 
HETATM   11  C   LIG     1      91.872  91.665  92.564  1.00  0.00     0.097 A 
HETATM   12  C   LIG     1      92.039  91.742  90.120  1.00  0.00    -0.024 A 
HETATM   13  C   LIG     1      92.557  92.046  91.394  1.00  0.00     0.016 A 
HETATM   14  C   LIG     1      90.653  90.737  97.297  1.00  0.00     0.350 A 
HETATM   15  C   LIG     1      90.580  90.860  94.947  1.00  0.00     0.171 A 
HETATM   16  C   LIG     1      91.904  91.595  94.899  1.00  0.00     0.171 A 
HETATM   17  C   LIG     1      92.536  91.864  96.243  1.00  0.00     0.282 A 
HETATM   18  C   LIG     1      90.239  90.679  88.657  1.00  0.00     0.031 C 
HETATM   19  C   LIG     1      92.808  92.169  88.882  1.00  0.00     0.031 C 
ENDROOT
BRANCH   1  20
HETATM   20  C   LIG     1      88.688  89.986  93.589  1.00  0.00     0.140 C 
BRANCH  20  21
HETATM   21  C   LIG     1      87.537  90.963  93.862  1.00  0.00     0.176 C 
BRANCH  21  22
HETATM   22  O   LIG     1      87.003  91.407  92.626  1.00  0.00    -0.300 OA
BRANCH  22  23
HETATM   23  C   LIG     1      87.265  92.653  92.203  1.00  0.00     0.273 C 
HETATM   24  C   LIG     1      87.103  92.801  90.696  1.00  0.00     0.106 C 
HETATM   25  O   LIG     1      87.601  93.603  92.910  1.00  0.00    -0.264 OA
ENDBRANCH  22  23
ENDBRANCH  21  22
ENDBRANCH  20  21
ENDBRANCH   1  20
TORSDOF 4
ENDMDL
MODEL 7
REMARK VINA RESULT:      -0.0      8.082     10.350
REMARK  4 active torsions:
REMARK  status: ('A' for Active; 'I' for Inactive)
REMARK    1  A    between atoms: N_1  and  C_20 
REMARK    2  A    between atoms: C_20  and  C_21 
REMARK    3  A    between atoms: C_21  and  O_22 
REMARK    4  A    between atoms: O_22  and  C_23 
ROOT
HETATM    1  N   LIG     1      88.610  83.130  92.518  1.00  0.00    -0.308 N 
HETATM    2  N   LIG     1      91.062  82.050  91.722  1.00  0.00    -0.236 NA
HETATM    3  N   LIG     1      89.453  83.280  94.739  1.00  0.00    -0.173 NA
HETATM    4  O   LIG     1      93.102  81.753  93.677  1.00  0.00    -0.265 OA
HETATM    5  N   LIG     1      91.671  82.586  95.227  1.00  0.00    -0.272 N 
HETATM    6  H   LIG     1      92.391  82.476  95.925  1.00  0.00     0.174 HD
HETATM    7  O   LIG     1      90.372  83.386  96.851  1.00  0.00    -0.244 OA
HETATM    8  C   LIG     1      87.711  82.755  90.202  1.00  0.00     0.014 A 
HETATM    9  C   LIG     1      88.744  82.704  91.173  1.00  0.00     0.079 A 
HETATM   10  C   LIG     1      87.935  82.316  88.880  1.00  0.00    -0.024 A 
HETATM   11  C   LIG     1      90.010  82.177  90.798  1.00  0.00     0.097 A 
HETATM   12  C   LIG     1      89.203  81.813  88.512  1.00  0.00    -0.024 A 
HETATM   13  C   LIG     1      90.229  81.744  89.476  1.00  0.00     0.016 A 
HETATM   14  C   LIG     1      90.491  83.098  95.663  1.00  0.00     0.350 A 
HETATM   15  C   LIG     1      89.608  82.960  93.485  1.00  0.00     0.171 A 
HETATM   16  C   LIG     1      90.900  82.377  92.949  1.00  0.00     0.171 A 
HETATM   17  C   LIG     1      91.997  82.206  93.971  1.00  0.00     0.282 A 
HETATM   18  C   LIG     1      86.803  82.391  87.871  1.00  0.00     0.031 C 
HETATM   19  C   LIG     1      89.478  81.336  87.097  1.00  0.00     0.031 C 
ENDROOT
BRANCH   1  20
HETATM   20  C   LIG     1      87.323  83.738  92.884  1.00  0.00     0.140 C 
BRANCH  20  21
HETATM   21  C   LIG     1      87.409  85.268  92.953  1.00  0.00     0.176 C 
BRANCH  21  22
HETATM   22  O   LIG     1      86.905  85.816  91.746  1.00  0.00    -0.300 OA
BRANCH  22  23
HETATM   23  C   LIG     1      87.759  86.332  90.849  1.00  0.00     0.273 C 
HETATM   24  C   LIG     1      87.170  86.377  89.445  1.00  0.00     0.106 C 
HETATM   25  O   LIG     1      88.897  86.738  91.082  1.00  0.00    -0.264 OA
ENDBRANCH  22  23
ENDBRANCH  21  22
ENDBRANCH  20  21
ENDBRANCH   1  20
TORSDOF 4
ENDMDL
MODEL 8
REMARK VINA RESULT:      -0.0      3.383      4.560
REMARK  4 active torsions:
REMARK  status: ('A' for Active; 'I' for Inactive)
REMARK    1  A    between atoms: N_1  and  C_20 
REMARK    2  A    between atoms: C_20  and  C_21 
REMARK    3  A    between atoms: C_21  and  O_22 
REMARK    4  A    between atoms: O_22  and  C_23 
ROOT
HETATM    1  N   LIG     1      88.133  91.567  90.318  1.00  0.00    -0.308 N 
HETATM    2  N   LIG     1      86.171  93.386  91.128  1.00  0.00    -0.236 NA
HETATM    3  N   LIG     1      89.321  92.029  92.329  1.00  0.00    -0.173 NA
HETATM    4  O   LIG     1      86.484  94.677  93.639  1.00  0.00    -0.265 OA
HETATM    5  N   LIG     1      88.443  93.566  93.912  1.00  0.00    -0.272 N 
HETATM    6  H   LIG     1      88.560  94.027  94.801  1.00  0.00     0.174 HD
HETATM    7  O   LIG     1      90.383  92.546  94.309  1.00  0.00    -0.244 OA
HETATM    8  C   LIG     1      86.940  91.279  88.126  1.00  0.00     0.014 A 
HETATM    9  C   LIG     1      87.069  91.839  89.423  1.00  0.00     0.079 A 
HETATM   10  C   LIG     1      85.840  91.599  87.303  1.00  0.00    -0.024 A 
HETATM   11  C   LIG     1      86.079  92.754  89.875  1.00  0.00     0.097 A 
HETATM   12  C   LIG     1      84.851  92.494  87.770  1.00  0.00    -0.024 A 
HETATM   13  C   LIG     1      84.981  93.067  89.050  1.00  0.00     0.016 A 
HETATM   14  C   LIG     1      89.429  92.705  93.552  1.00  0.00     0.350 A 
HETATM   15  C   LIG     1      88.299  92.223  91.544  1.00  0.00     0.171 A 
HETATM   16  C   LIG     1      87.176  93.178  91.894  1.00  0.00     0.171 A 
HETATM   17  C   LIG     1      87.323  93.879  93.222  1.00  0.00     0.282 A 
HETATM   18  C   LIG     1      85.738  90.975  85.922  1.00  0.00     0.031 C 
HETATM   19  C   LIG     1      83.653  92.858  86.910  1.00  0.00     0.031 C 
ENDROOT
BRANCH   1  20
HETATM   20  C   LIG     1      89.117  90.569  89.876  1.00  0.00     0.140 C 
BRANCH  20  21
HETATM   21  C   LIG     1      88.895  89.206  90.547  1.00  0.00     0.176 C 
BRANCH  21  22
HETATM   22  O   LIG     1      88.185  88.361  89.656  1.00  0.00    -0.300 OA
BRANCH  22  23
HETATM   23  C   LIG     1      86.890  88.099  89.887  1.00  0.00     0.273 C 
HETATM   24  C   LIG     1      86.153  87.658  88.629  1.00  0.00     0.106 C 
HETATM   25  O   LIG     1      86.315  88.187  90.971  1.00  0.00    -0.264 OA
ENDBRANCH  22  23
ENDBRANCH  21  22
ENDBRANCH  20  21
ENDBRANCH   1  20
TORSDOF 4
ENDMDL
MODEL 9
REMARK VINA RESULT:      -0.0      7.161      9.347
REMARK  4 active torsions:
REMARK  status: ('A' for Active; 'I' for Inactive)
REMARK    1  A    between atoms: N_1  and  C_20 
REMARK    2  A    between atoms: C_20  and  C_21 
REMARK    3  A    between atoms: C_21  and  O_22 
REMARK    4  A    between atoms: O_22  and  C_23 
ROOT
HETATM    1  N   LIG     1      94.760  86.545  94.253  1.00  0.00    -0.308 N 
HETATM    2  N   LIG     1      97.237  85.340  93.779  1.00  0.00    -0.236 NA
HETATM    3  N   LIG     1      95.654  87.485  96.249  1.00  0.00    -0.173 NA
HETATM    4  O   LIG     1      99.340  85.808  95.630  1.00  0.00    -0.265 OA
HETATM    5  N   LIG     1      97.915  87.079  96.854  1.00  0.00    -0.272 N 
HETATM    6  H   LIG     1      98.658  87.243  97.517  1.00  0.00     0.174 HD
HETATM    7  O   LIG     1      96.624  88.348  98.154  1.00  0.00    -0.244 OA
HETATM    8  C   LIG     1      93.816  85.359  92.249  1.00  0.00     0.014 A 
HETATM    9  C   LIG     1      94.876  85.684  93.134  1.00  0.00     0.079 A 
HETATM   10  C   LIG     1      94.025  84.497  91.151  1.00  0.00    -0.024 A 
HETATM   11  C   LIG     1      96.155  85.103  92.912  1.00  0.00     0.097 A 
HETATM   12  C   LIG     1      95.305  83.941  90.928  1.00  0.00    -0.024 A 
HETATM   13  C   LIG     1      96.358  84.246  91.813  1.00  0.00     0.016 A 
HETATM   14  C   LIG     1      96.725  87.670  97.135  1.00  0.00     0.350 A 
HETATM   15  C   LIG     1      95.790  86.755  95.177  1.00  0.00     0.171 A 
HETATM   16  C   LIG     1      97.093  86.067  94.823  1.00  0.00     0.171 A 
HETATM   17  C   LIG     1      98.224  86.299  95.794  1.00  0.00     0.282 A 
HETATM   18  C   LIG     1      92.864  84.178  90.226  1.00  0.00     0.031 C 
HETATM   19  C   LIG     1      95.563  83.012  89.755  1.00  0.00     0.031 C 
ENDROOT
BRANCH   1  20
HETATM   20  C   LIG     1      93.456  87.198  94.439  1.00  0.00     0.140 C 
BRANCH  20  21
HETATM   21  C   LIG     1      93.473  88.660  93.972  1.00  0.00     0.176 C 
BRANCH  21  22
HETATM   22  O   LIG     1      92.915  88.738  92.671  1.00  0.00    -0.300 OA
BRANCH  22  23
HETATM   23  C   LIG     1      93.722  88.938  91.618  1.00  0.00     0.273 C 
HETATM   24  C   LIG     1      93.096  88.472  90.310  1.00  0.00     0.106 C 
HETATM   25  O   LIG     1      94.846  89.436  91.651  1.00  0.00    -0.264 OA
ENDBRANCH  22  23
ENDBRANCH  21  22
ENDBRANCH  20  21
ENDBRANCH   1  20
TORSDOF 4
ENDMDL
