MODEL 1
REMARK VINA RESULT:      -0.0      0.000      0.000
REMARK  5 active torsions:
REMARK  status: ('A' for Active; 'I' for Inactive)
REMARK    1  A    between atoms: C_3  and  C_25 
REMARK    2  A    between atoms: C_17  and  O_32 
REMARK    3  A    between atoms: C_25  and  C_27 
REMARK    4  A    between atoms: C_27  and  C_28 
REMARK    5  A    between atoms: C_28  and  C_29 
ROOT
HETATM    1  O   LIG     1      91.510  88.172  93.636  1.00  0.00    -0.296 OA
HETATM    2  O   LIG     1      95.018  88.331  88.813  1.00  0.00    -0.296 OA
HETATM    3  C   LIG     1      93.277  84.162  91.364  1.00  0.00     0.000 C 
HETATM    4  C   LIG     1      94.522  84.178  90.435  1.00  0.00     0.000 C 
HETATM    5  C   LIG     1      92.705  85.609  91.211  1.00  0.00     0.007 C 
HETATM    6  C   LIG     1      91.871  86.129  92.424  1.00  0.00     0.065 C 
HETATM    7  C   LIG     1      91.850  87.662  92.571  1.00  0.00     0.151 C 
HETATM    8  C   LIG     1      94.820  85.647  90.079  1.00  0.00     0.000 C 
HETATM    9  C   LIG     1      94.014  86.467  91.104  1.00  0.00     0.007 C 
HETATM   10  C   LIG     1      92.299  88.483  91.342  1.00  0.00     0.065 C 
HETATM   11  C   LIG     1      93.704  87.991  90.829  1.00  0.00     0.065 C 
HETATM   12  C   LIG     1      92.170  90.055  91.362  1.00  0.00     0.007 C 
HETATM   13  C   LIG     1      93.081  90.617  92.498  1.00  0.00     0.003 C 
HETATM   14  C   LIG     1      93.535  92.058  92.318  1.00  0.00     0.029 C 
HETATM   15  C   LIG     1      93.979  88.553  89.431  1.00  0.00     0.151 C 
HETATM   16  C   LIG     1      92.495  90.607  89.894  1.00  0.00     0.010 C 
HETATM   17  C   LIG     1      94.228  92.210  90.966  1.00  0.00     0.111 C 
HETATM   18  C   LIG     1      92.922  89.497  88.880  1.00  0.00     0.065 C 
HETATM   19  C   LIG     1      93.252  91.999  89.778  1.00  0.00     0.025 C 
HETATM   20  C   LIG     1      94.067  92.117  88.464  1.00  0.00     0.002 C 
HETATM   21  C   LIG     1      92.207  93.147  89.715  1.00  0.00     0.002 C 
HETATM   22  C   LIG     1      90.705  90.456  91.687  1.00  0.00     0.000 C 
HETATM   23  C   LIG     1      91.846  85.636  89.904  1.00  0.00     0.000 C 
HETATM   24  C   LIG     1      94.888  86.462  92.403  1.00  0.00     0.000 C 
ENDROOT
BRANCH   3  25
HETATM   25  C   LIG     1      92.354  82.925  91.117  1.00  0.00     0.001 C 
HETATM   26  C   LIG     1      93.093  81.866  90.267  1.00  0.00     0.000 C 
BRANCH  25  27
HETATM   27  C   LIG     1      91.834  82.281  92.430  1.00  0.00     0.011 C 
BRANCH  27  28
HETATM   28  C   LIG     1      90.445  82.747  92.929  1.00  0.00     0.098 C 
BRANCH  28  29
HETATM   29  C   LIG     1      89.427  82.945  91.799  1.00  0.00     0.185 C 
HETATM   30  O   LIG     1      89.063  84.112  91.532  1.00  0.00    -0.647 OA
HETATM   31  O   LIG     1      89.015  81.912  91.227  1.00  0.00    -0.647 OA
ENDBRANCH  28  29
ENDBRANCH  27  28
ENDBRANCH  25  27
ENDBRANCH   3  25
BRANCH  17  32
HETATM   32  O   LIG     1      94.843  93.484  90.932  1.00  0.00    -0.385 OA
HETATM   33  H   LIG     1      95.509  93.477  90.262  1.00  0.00     0.210 HD
ENDBRANCH  17  32
TORSDOF 5
ENDMDL
MODEL 2
REMARK VINA RESULT:      -0.0      6.900      9.490
REMARK  5 active torsions:
REMARK  status: ('A' for Active; 'I' for Inactive)
REMARK    1  A    between atoms: C_3  and  C_25 
REMARK    2  A    between atoms: C_17  and  O_32 
REMARK    3  A    between atoms: C_25  and  C_27 
REMARK    4  A    between atoms: C_27  and  C_28 
REMARK    5  A    between atoms: C_28  and  C_29 
ROOT
HETATM    1  O   LIG     1      90.203  91.583  82.603  1.00  0.00    -0.296 OA
HETATM    2  O   LIG     1      87.664  87.002  85.459  1.00  0.00    -0.296 OA
HETATM    3  C   LIG     1      92.345  87.180  83.227  1.00  0.00     0.000 C 
HETATM    4  C   LIG     1      91.557  85.877  83.535  1.00  0.00     0.000 C 
HETATM    5  C   LIG     1      91.436  88.294  83.842  1.00  0.00     0.007 C 
HETATM    6  C   LIG     1      91.582  89.707  83.196  1.00  0.00     0.065 C 
HETATM    7  C   LIG     1      90.333  90.599  83.326  1.00  0.00     0.151 C 
HETATM    8  C   LIG     1      90.136  86.282  83.970  1.00  0.00     0.000 C 
HETATM    9  C   LIG     1      89.998  87.750  83.529  1.00  0.00     0.007 C 
HETATM   10  C   LIG     1      89.278  90.167  84.369  1.00  0.00     0.065 C 
HETATM   11  C   LIG     1      88.870  88.662  84.155  1.00  0.00     0.065 C 
HETATM   12  C   LIG     1      88.042  91.102  84.664  1.00  0.00     0.007 C 
HETATM   13  C   LIG     1      87.195  91.237  83.361  1.00  0.00     0.003 C 
HETATM   14  C   LIG     1      85.730  91.592  83.568  1.00  0.00     0.029 C 
HETATM   15  C   LIG     1      88.109  88.145  85.380  1.00  0.00     0.151 C 
HETATM   16  C   LIG     1      87.255  90.513  85.929  1.00  0.00     0.010 C 
HETATM   17  C   LIG     1      85.087  90.574  84.508  1.00  0.00     0.111 C 
HETATM   18  C   LIG     1      87.842  89.170  86.472  1.00  0.00     0.065 C 
HETATM   19  C   LIG     1      85.672  90.649  85.944  1.00  0.00     0.025 C 
HETATM   20  C   LIG     1      84.995  89.543  86.793  1.00  0.00     0.002 C 
HETATM   21  C   LIG     1      85.280  91.988  86.628  1.00  0.00     0.002 C 
HETATM   22  C   LIG     1      88.540  92.520  85.056  1.00  0.00     0.000 C 
HETATM   23  C   LIG     1      91.747  88.357  85.374  1.00  0.00     0.000 C 
HETATM   24  C   LIG     1      89.659  87.685  82.001  1.00  0.00     0.000 C 
ENDROOT
BRANCH   3  25
HETATM   25  C   LIG     1      93.851  87.087  83.631  1.00  0.00     0.001 C 
HETATM   26  C   LIG     1      94.243  85.617  83.906  1.00  0.00     0.000 C 
BRANCH  25  27
HETATM   27  C   LIG     1      94.806  87.699  82.572  1.00  0.00     0.011 C 
BRANCH  27  28
HETATM   28  C   LIG     1      95.226  89.173  82.787  1.00  0.00     0.098 C 
BRANCH  28  29
HETATM   29  C   LIG     1      95.500  89.521  84.256  1.00  0.00     0.185 C 
HETATM   30  O   LIG     1      94.699  90.285  84.838  1.00  0.00    -0.647 OA
HETATM   31  O   LIG     1      96.525  89.022  84.769  1.00  0.00    -0.647 OA
ENDBRANCH  28  29
ENDBRANCH  27  28
ENDBRANCH  25  27
ENDBRANCH   3  25
BRANCH  17  32
HETATM   32  O   LIG     1      83.688  90.788  84.490  1.00  0.00    -0.385 OA
HETATM   33  H   LIG     1      83.303  90.190  83.869  1.00  0.00     0.210 HD
ENDBRANCH  17  32
TORSDOF 5
ENDMDL
MODEL 3
REMARK VINA RESULT:      -0.0      6.541      8.537
REMARK  5 active torsions:
REMARK  status: ('A' for Active; 'I' for Inactive)
REMARK    1  A    between atoms: C_3  and  C_25 
REMARK    2  A    between atoms: C_17  and  O_32 
REMARK    3  A    between atoms: C_25  and  C_27 
REMARK    4  A    between atoms: C_27  and  C_28 
REMARK    5  A    between atoms: C_28  and  C_29 
ROOT
HETATM    1  O   LIG     1      82.982  86.401  89.987  1.00  0.00    -0.296 OA
HETATM    2  O   LIG     1      87.455  90.204  88.927  1.00  0.00    -0.296 OA
HETATM    3  C   LIG     1      86.229  87.875  93.400  1.00  0.00     0.000 C 
HETATM    4  C   LIG     1      87.077  89.172  93.277  1.00  0.00     0.000 C 
HETATM    5  C   LIG     1      85.989  87.470  91.908  1.00  0.00     0.007 C 
HETATM    6  C   LIG     1      84.706  86.621  91.647  1.00  0.00     0.065 C 
HETATM    7  C   LIG     1      84.136  86.752  90.222  1.00  0.00     0.151 C 
HETATM    8  C   LIG     1      86.998  89.644  91.813  1.00  0.00     0.000 C 
HETATM    9  C   LIG     1      85.811  88.867  91.216  1.00  0.00     0.007 C 
HETATM   10  C   LIG     1      85.071  87.362  89.154  1.00  0.00     0.065 C 
HETATM   11  C   LIG     1      85.657  88.736  89.650  1.00  0.00     0.065 C 
HETATM   12  C   LIG     1      84.615  87.398  87.645  1.00  0.00     0.007 C 
HETATM   13  C   LIG     1      83.340  88.290  87.528  1.00  0.00     0.003 C 
HETATM   14  C   LIG     1      83.094  88.903  86.157  1.00  0.00     0.029 C 
HETATM   15  C   LIG     1      86.832  89.157  88.762  1.00  0.00     0.151 C 
HETATM   16  C   LIG     1      85.859  87.872  86.753  1.00  0.00     0.010 C 
HETATM   17  C   LIG     1      84.328  89.693  85.724  1.00  0.00     0.111 C 
HETATM   18  C   LIG     1      87.130  88.242  87.584  1.00  0.00     0.065 C 
HETATM   19  C   LIG     1      85.557  88.777  85.483  1.00  0.00     0.025 C 
HETATM   20  C   LIG     1      86.759  89.681  85.106  1.00  0.00     0.002 C 
HETATM   21  C   LIG     1      85.328  87.864  84.246  1.00  0.00     0.002 C 
HETATM   22  C   LIG     1      84.237  85.966  87.177  1.00  0.00     0.000 C 
HETATM   23  C   LIG     1      87.263  86.703  91.422  1.00  0.00     0.000 C 
HETATM   24  C   LIG     1      84.538  89.652  91.681  1.00  0.00     0.000 C 
ENDROOT
BRANCH   3  25
HETATM   25  C   LIG     1      86.842  86.845  94.402  1.00  0.00     0.001 C 
HETATM   26  C   LIG     1      87.931  87.520  95.266  1.00  0.00     0.000 C 
BRANCH  25  27
HETATM   27  C   LIG     1      85.779  86.179  95.316  1.00  0.00     0.011 C 
BRANCH  27  28
HETATM   28  C   LIG     1      85.213  84.818  94.844  1.00  0.00     0.098 C 
BRANCH  28  29
HETATM   29  C   LIG     1      86.274  83.899  94.223  1.00  0.00     0.185 C 
HETATM   30  O   LIG     1      86.214  83.678  92.994  1.00  0.00    -0.647 OA
HETATM   31  O   LIG     1      87.125  83.418  95.003  1.00  0.00    -0.647 OA
ENDBRANCH  28  29
ENDBRANCH  27  28
ENDBRANCH  25  27
ENDBRANCH   3  25
BRANCH  17  32
HETATM   32  O   LIG     1      83.984  90.440  84.572  1.00  0.00    -0.385 OA
HETATM   33  H   LIG     1      84.677  91.057  84.399  1.00  0.00     0.210 HD
ENDBRANCH  17  32
TORSDOF 5
ENDMDL
MODEL 4
REMARK VINA RESULT:      -0.0      5.006      9.271
REMARK  5 active torsions:
REMARK  status: ('A' for Active; 'I' for Inactive)
REMARK    1  A    between atoms: C_3  and  C_25 
REMARK    2  A    between atoms: C_17  and  O_32 
REMARK    3  A    between atoms: C_25  and  C_27 
REMARK    4  A    between atoms: C_27  and  C_28 
REMARK    5  A    between atoms: C_28  and  C_29 
ROOT
HETATM    1  O   LIG     1      85.150  85.762  92.589  1.00  0.00    -0.296 OA
HETATM    2  O   LIG     1      86.475  87.489  87.034  1.00  0.00    -0.296 OA
HETATM    3  C   LIG     1      87.836  89.757  91.499  1.00  0.00     0.000 C 
HETATM    4  C   LIG     1      87.800  90.467  90.117  1.00  0.00     0.000 C 
HETATM    5  C   LIG     1      87.488  88.274  91.141  1.00  0.00     0.007 C 
HETATM    6  C   LIG     1      86.838  87.446  92.293  1.00  0.00     0.065 C 
HETATM    7  C   LIG     1      85.954  86.278  91.817  1.00  0.00     0.151 C 
HETATM    8  C   LIG     1      87.120  89.511  89.119  1.00  0.00     0.000 C 
HETATM    9  C   LIG     1      86.427  88.456  90.000  1.00  0.00     0.007 C 
HETATM   10  C   LIG     1      86.119  85.839  90.345  1.00  0.00     0.065 C 
HETATM   11  C   LIG     1      85.983  87.073  89.378  1.00  0.00     0.065 C 
HETATM   12  C   LIG     1      85.357  84.562  89.820  1.00  0.00     0.007 C 
HETATM   13  C   LIG     1      83.821  84.817  89.927  1.00  0.00     0.003 C 
HETATM   14  C   LIG     1      82.955  83.997  88.982  1.00  0.00     0.029 C 
HETATM   15  C   LIG     1      86.489  86.705  87.980  1.00  0.00     0.151 C 
HETATM   16  C   LIG     1      85.889  84.226  88.346  1.00  0.00     0.010 C 
HETATM   17  C   LIG     1      83.424  84.214  87.545  1.00  0.00     0.111 C 
HETATM   18  C   LIG     1      86.925  85.259  87.797  1.00  0.00     0.065 C 
HETATM   19  C   LIG     1      84.847  83.645  87.298  1.00  0.00     0.025 C 
HETATM   20  C   LIG     1      85.243  83.968  85.834  1.00  0.00     0.002 C 
HETATM   21  C   LIG     1      84.841  82.093  87.388  1.00  0.00     0.002 C 
HETATM   22  C   LIG     1      85.699  83.341  90.718  1.00  0.00     0.000 C 
HETATM   23  C   LIG     1      88.806  87.590  90.650  1.00  0.00     0.000 C 
HETATM   24  C   LIG     1      85.094  89.132  90.469  1.00  0.00     0.000 C 
ENDROOT
BRANCH   3  25
HETATM   25  C   LIG     1      89.130  90.082  92.313  1.00  0.00     0.001 C 
HETATM   26  C   LIG     1      89.865  91.291  91.690  1.00  0.00     0.000 C 
BRANCH  25  27
HETATM   27  C   LIG     1      88.853  90.349  93.816  1.00  0.00     0.011 C 
BRANCH  27  28
HETATM   28  C   LIG     1      89.004  89.143  94.774  1.00  0.00     0.098 C 
BRANCH  28  29
HETATM   29  C   LIG     1      90.198  88.241  94.434  1.00  0.00     0.185 C 
HETATM   30  O   LIG     1      89.962  87.097  93.987  1.00  0.00    -0.647 OA
HETATM   31  O   LIG     1      91.336  88.713  94.646  1.00  0.00    -0.647 OA
ENDBRANCH  28  29
ENDBRANCH  27  28
ENDBRANCH  25  27
ENDBRANCH   3  25
BRANCH  17  32
HETATM   32  O   LIG     1      82.461  83.637  86.681  1.00  0.00    -0.385 OA
HETATM   33  H   LIG     1      82.907  83.296  85.922  1.00  0.00     0.210 HD
ENDBRANCH  17  32
TORSDOF 5
ENDMDL
MODEL 5
REMARK VINA RESULT:      -0.0      7.674     10.946
REMARK  5 active torsions:
REMARK  status: ('A' for Active; 'I' for Inactive)
REMARK    1  A    between atoms: C_3  and  C_25 
REMARK    2  A    between atoms: C_17  and  O_32 
REMARK    3  A    between atoms: C_25  and  C_27 
REMARK    4  A    between atoms: C_27  and  C_28 
REMARK    5  A    between atoms: C_28  and  C_29 
ROOT
HETATM    1  O   LIG     1      88.809  88.713  87.041  1.00  0.00    -0.296 OA
HETATM    2  O   LIG     1      84.144  91.865  85.068  1.00  0.00    -0.296 OA
HETATM    3  C   LIG     1      89.121  92.302  83.666  1.00  0.00     0.000 C 
HETATM    4  C   LIG     1      88.048  93.412  83.490  1.00  0.00     0.000 C 
HETATM    5  C   LIG     1      88.293  91.099  84.227  1.00  0.00     0.007 C 
HETATM    6  C   LIG     1      89.102  90.074  85.082  1.00  0.00     0.065 C 
HETATM    7  C   LIG     1      88.259  89.298  86.111  1.00  0.00     0.151 C 
HETATM    8  C   LIG     1      86.783  92.963  84.246  1.00  0.00     0.000 C 
HETATM    9  C   LIG     1      87.262  91.822  85.162  1.00  0.00     0.007 C 
HETATM   10  C   LIG     1      86.726  89.331  85.918  1.00  0.00     0.065 C 
HETATM   11  C   LIG     1      86.216  90.814  85.783  1.00  0.00     0.065 C 
HETATM   12  C   LIG     1      85.802  88.447  86.841  1.00  0.00     0.007 C 
HETATM   13  C   LIG     1      85.969  88.922  88.318  1.00  0.00     0.003 C 
HETATM   14  C   LIG     1      84.797  88.617  89.239  1.00  0.00     0.029 C 
HETATM   15  C   LIG     1      84.781  90.829  85.248  1.00  0.00     0.151 C 
HETATM   16  C   LIG     1      84.307  88.512  86.270  1.00  0.00     0.010 C 
HETATM   17  C   LIG     1      83.516  89.196  88.643  1.00  0.00     0.111 C 
HETATM   18  C   LIG     1      84.139  89.466  85.043  1.00  0.00     0.065 C 
HETATM   19  C   LIG     1      83.114  88.493  87.319  1.00  0.00     0.025 C 
HETATM   20  C   LIG     1      81.841  89.192  86.774  1.00  0.00     0.002 C 
HETATM   21  C   LIG     1      82.690  87.021  87.585  1.00  0.00     0.002 C 
HETATM   22  C   LIG     1      86.255  86.962  86.767  1.00  0.00     0.000 C 
HETATM   23  C   LIG     1      87.621  90.386  83.008  1.00  0.00     0.000 C 
HETATM   24  C   LIG     1      87.910  92.538  86.395  1.00  0.00     0.000 C 
ENDROOT
BRANCH   3  25
HETATM   25  C   LIG     1      90.012  92.114  82.396  1.00  0.00     0.001 C 
HETATM   26  C   LIG     1      89.828  93.308  81.431  1.00  0.00     0.000 C 
BRANCH  25  27
HETATM   27  C   LIG     1      91.517  91.930  82.729  1.00  0.00     0.011 C 
BRANCH  27  28
HETATM   28  C   LIG     1      92.029  90.474  82.845  1.00  0.00     0.098 C 
BRANCH  28  29
HETATM   29  C   LIG     1      91.427  89.532  81.795  1.00  0.00     0.185 C 
HETATM   30  O   LIG     1      90.626  88.652  82.184  1.00  0.00    -0.647 OA
HETATM   31  O   LIG     1      91.795  89.701  80.612  1.00  0.00    -0.647 OA
ENDBRANCH  28  29
ENDBRANCH  27  28
ENDBRANCH  25  27
ENDBRANCH   3  25
BRANCH  17  32
HETATM   32  O   LIG     1      82.500  89.107  89.624  1.00  0.00    -0.385 OA
HETATM   33  H   LIG     1      82.873  88.734  90.408  1.00  0.00     0.210 HD
ENDBRANCH  17  32
TORSDOF 5
ENDMDL
MODEL 6
REMARK VINA RESULT:      -0.0      6.505      9.076
REMARK  5 active torsions:
REMARK  status: ('A' for Active; 'I' for Inactive)
REMARK    1  A    between atoms: C_3  and  C_25 
REMARK    2  A    between atoms: C_17  and  O_32 
REMARK    3  A    between atoms: C_25  and  C_27 
REMARK    4  A    between atoms: C_27  and  C_28 
REMARK    5  A    between atoms: C_28  and  C_29 
ROOT
HETATM    1  O   LIG     1      88.806  90.580  89.990  1.00  0.00    -0.296 OA
HETATM    2  O   LIG     1      88.033  95.331  86.465  1.00  0.00    -0.296 OA
HETATM    3  C   LIG     1      84.399  92.255  88.528  1.00  0.00     0.000 C 
HETATM    4  C   LIG     1      84.193  93.161  87.282  1.00  0.00     0.000 C 
HETATM    5  C   LIG     1      85.851  92.613  88.987  1.00  0.00     0.007 C 
HETATM    6  C   LIG     1      86.593  91.495  89.782  1.00  0.00     0.065 C 
HETATM    7  C   LIG     1      88.129  91.560  89.687  1.00  0.00     0.151 C 
HETATM    8  C   LIG     1      85.572  93.711  86.872  1.00  0.00     0.000 C 
HETATM    9  C   LIG     1      86.584  92.820  87.615  1.00  0.00     0.007 C 
HETATM   10  C   LIG     1      88.737  92.883  89.172  1.00  0.00     0.065 C 
HETATM   11  C   LIG     1      88.075  93.305  87.808  1.00  0.00     0.065 C 
HETATM   12  C   LIG     1      90.302  93.081  89.181  1.00  0.00     0.007 C 
HETATM   13  C   LIG     1      90.945  92.021  88.233  1.00  0.00     0.003 C 
HETATM   14  C   LIG     1      92.310  92.391  87.670  1.00  0.00     0.029 C 
HETATM   15  C   LIG     1      88.416  94.763  87.486  1.00  0.00     0.151 C 
HETATM   16  C   LIG     1      90.620  94.607  88.810  1.00  0.00     0.010 C 
HETATM   17  C   LIG     1      92.220  93.742  86.963  1.00  0.00     0.111 C 
HETATM   18  C   LIG     1      89.352  95.453  88.466  1.00  0.00     0.065 C 
HETATM   19  C   LIG     1      91.921  94.903  87.948  1.00  0.00     0.025 C 
HETATM   20  C   LIG     1      91.796  96.209  87.123  1.00  0.00     0.002 C 
HETATM   21  C   LIG     1      93.126  95.136  88.903  1.00  0.00     0.002 C 
HETATM   22  C   LIG     1      90.853  92.834  90.612  1.00  0.00     0.000 C 
HETATM   23  C   LIG     1      85.761  93.923  89.837  1.00  0.00     0.000 C 
HETATM   24  C   LIG     1      86.693  91.520  86.748  1.00  0.00     0.000 C 
ENDROOT
BRANCH   3  25
HETATM   25  C   LIG     1      83.213  92.342  89.542  1.00  0.00     0.001 C 
HETATM   26  C   LIG     1      81.995  93.029  88.884  1.00  0.00     0.000 C 
BRANCH  25  27
HETATM   27  C   LIG     1      82.797  90.960  90.113  1.00  0.00     0.011 C 
BRANCH  27  28
HETATM   28  C   LIG     1      83.430  90.549  91.464  1.00  0.00     0.098 C 
BRANCH  28  29
HETATM   29  C   LIG     1      83.547  91.709  92.461  1.00  0.00     0.185 C 
HETATM   30  O   LIG     1      84.690  92.139  92.733  1.00  0.00    -0.647 OA
HETATM   31  O   LIG     1      82.479  92.139  92.948  1.00  0.00    -0.647 OA
ENDBRANCH  28  29
ENDBRANCH  27  28
ENDBRANCH  25  27
ENDBRANCH   3  25
BRANCH  17  32
HETATM   32  O   LIG     1      93.428  93.942  86.252  1.00  0.00    -0.385 OA
HETATM   33  H   LIG     1      93.707  94.835  86.383  1.00  0.00     0.210 HD
ENDBRANCH  17  32
TORSDOF 5
ENDMDL
MODEL 7
REMARK VINA RESULT:      -0.0      6.359      8.744
REMARK  5 active torsions:
REMARK  status: ('A' for Active; 'I' for Inactive)
REMARK    1  A    between atoms: C_3  and  C_25 
REMARK    2  A    between atoms: C_17  and  O_32 
REMARK    3  A    between atoms: C_25  and  C_27 
REMARK    4  A    between atoms: C_27  and  C_28 
REMARK    5  A    between atoms: C_28  and  C_29 
ROOT
HETATM    1  O   LIG     1      86.829  90.183  89.268  1.00  0.00    -0.296 OA
HETATM    2  O   LIG     1      82.822  90.557  93.673  1.00  0.00    -0.296 OA
HETATM    3  C   LIG     1      85.959  86.584  92.532  1.00  0.00     0.000 C 
HETATM    4  C   LIG     1      84.648  86.472  93.360  1.00  0.00     0.000 C 
HETATM    5  C   LIG     1      86.086  88.123  92.281  1.00  0.00     0.007 C 
HETATM    6  C   LIG     1      86.892  88.526  91.008  1.00  0.00     0.065 C 
HETATM    7  C   LIG     1      86.509  89.897  90.420  1.00  0.00     0.151 C 
HETATM    8  C   LIG     1      83.914  87.822  93.257  1.00  0.00     0.000 C 
HETATM    9  C   LIG     1      84.588  88.542  92.074  1.00  0.00     0.007 C 
HETATM   10  C   LIG     1      85.696  90.841  91.333  1.00  0.00     0.065 C 
HETATM   11  C   LIG     1      84.428  90.104  91.904  1.00  0.00     0.065 C 
HETATM   12  C   LIG     1      85.389  92.314  90.860  1.00  0.00     0.007 C 
HETATM   13  C   LIG     1      84.512  92.252  89.570  1.00  0.00     0.003 C 
HETATM   14  C   LIG     1      83.659  93.483  89.300  1.00  0.00     0.029 C 
HETATM   15  C   LIG     1      83.831  90.908  93.064  1.00  0.00     0.151 C 
HETATM   16  C   LIG     1      84.738  93.113  92.087  1.00  0.00     0.010 C 
HETATM   17  C   LIG     1      82.783  93.773  90.517  1.00  0.00     0.111 C 
HETATM   18  C   LIG     1      84.507  92.237  93.361  1.00  0.00     0.065 C 
HETATM   19  C   LIG     1      83.618  94.190  91.757  1.00  0.00     0.025 C 
HETATM   20  C   LIG     1      82.640  94.403  92.941  1.00  0.00     0.002 C 
HETATM   21  C   LIG     1      84.289  95.573  91.527  1.00  0.00     0.002 C 
HETATM   22  C   LIG     1      86.715  93.036  90.498  1.00  0.00     0.000 C 
HETATM   23  C   LIG     1      86.728  88.754  93.560  1.00  0.00     0.000 C 
HETATM   24  C   LIG     1      83.924  87.929  90.795  1.00  0.00     0.000 C 
ENDROOT
BRANCH   3  25
HETATM   25  C   LIG     1      87.147  85.795  93.171  1.00  0.00     0.001 C 
HETATM   26  C   LIG     1      86.626  84.830  94.260  1.00  0.00     0.000 C 
BRANCH  25  27
HETATM   27  C   LIG     1      87.989  85.011  92.129  1.00  0.00     0.011 C 
BRANCH  27  28
HETATM   28  C   LIG     1      89.248  85.723  91.578  1.00  0.00     0.098 C 
BRANCH  28  29
HETATM   29  C   LIG     1      90.018  86.512  92.645  1.00  0.00     0.185 C 
HETATM   30  O   LIG     1      90.008  87.761  92.574  1.00  0.00    -0.647 OA
HETATM   31  O   LIG     1      90.621  85.843  93.511  1.00  0.00    -0.647 OA
ENDBRANCH  28  29
ENDBRANCH  27  28
ENDBRANCH  25  27
ENDBRANCH   3  25
BRANCH  17  32
HETATM   32  O   LIG     1      81.842  94.764  90.149  1.00  0.00    -0.385 OA
HETATM   33  H   LIG     1      82.283  95.415  89.627  1.00  0.00     0.210 HD
ENDBRANCH  17  32
TORSDOF 5
ENDMDL
MODEL 8
REMARK VINA RESULT:      -0.0      4.402      7.224
REMARK  5 active torsions:
REMARK  status: ('A' for Active; 'I' for Inactive)
REMARK    1  A    between atoms: C_3  and  C_25 
REMARK    2  A    between atoms: C_17  and  O_32 
REMARK    3  A    between atoms: C_25  and  C_27 
REMARK    4  A    between atoms: C_27  and  C_28 
REMARK    5  A    between atoms: C_28  and  C_29 
ROOT
HETATM    1  O   LIG     1      89.002  89.004  91.931  1.00  0.00    -0.296 OA
HETATM    2  O   LIG     1      91.725  93.205  88.687  1.00  0.00    -0.296 OA
HETATM    3  C   LIG     1      87.022  91.140  87.947  1.00  0.00     0.000 C 
HETATM    4  C   LIG     1      87.857  91.862  86.853  1.00  0.00     0.000 C 
HETATM    5  C   LIG     1      87.896  91.319  89.231  1.00  0.00     0.007 C 
HETATM    6  C   LIG     1      87.695  90.231  90.331  1.00  0.00     0.065 C 
HETATM    7  C   LIG     1      88.913  90.023  91.251  1.00  0.00     0.151 C 
HETATM    8  C   LIG     1      89.267  92.103  87.425  1.00  0.00     0.000 C 
HETATM    9  C   LIG     1      89.350  91.183  88.657  1.00  0.00     0.007 C 
HETATM   10  C   LIG     1      89.991  91.129  91.236  1.00  0.00     0.065 C 
HETATM   11  C   LIG     1      90.450  91.436  89.762  1.00  0.00     0.065 C 
HETATM   12  C   LIG     1      91.195  91.062  92.251  1.00  0.00     0.007 C 
HETATM   13  C   LIG     1      92.027  89.775  91.957  1.00  0.00     0.003 C 
HETATM   14  C   LIG     1      93.480  89.819  92.405  1.00  0.00     0.029 C 
HETATM   15  C   LIG     1      91.239  92.749  89.719  1.00  0.00     0.151 C 
HETATM   16  C   LIG     1      92.013  92.436  92.156  1.00  0.00     0.010 C 
HETATM   17  C   LIG     1      94.166  91.038  91.792  1.00  0.00     0.111 C 
HETATM   18  C   LIG     1      91.478  93.418  91.064  1.00  0.00     0.065 C 
HETATM   19  C   LIG     1      93.590  92.372  92.337  1.00  0.00     0.025 C 
HETATM   20  C   LIG     1      94.313  93.536  91.611  1.00  0.00     0.002 C 
HETATM   21  C   LIG     1      93.941  92.548  93.841  1.00  0.00     0.002 C 
HETATM   22  C   LIG     1      90.651  90.954  93.703  1.00  0.00     0.000 C 
HETATM   23  C   LIG     1      87.596  92.743  89.807  1.00  0.00     0.000 C 
HETATM   24  C   LIG     1      89.678  89.764  88.081  1.00  0.00     0.000 C 
ENDROOT
BRANCH   3  25
HETATM   25  C   LIG     1      85.523  91.582  87.952  1.00  0.00     0.001 C 
HETATM   26  C   LIG     1      85.186  92.351  86.654  1.00  0.00     0.000 C 
BRANCH  25  27
HETATM   27  C   LIG     1      84.538  90.396  88.135  1.00  0.00     0.011 C 
BRANCH  27  28
HETATM   28  C   LIG     1      84.069  90.102  89.580  1.00  0.00     0.098 C 
BRANCH  28  29
HETATM   29  C   LIG     1      83.795  91.368  90.402  1.00  0.00     0.185 C 
HETATM   30  O   LIG     1      84.573  91.637  91.344  1.00  0.00    -0.647 OA
HETATM   31  O   LIG     1      82.793  92.041  90.079  1.00  0.00    -0.647 OA
ENDBRANCH  28  29
ENDBRANCH  27  28
ENDBRANCH  25  27
ENDBRANCH   3  25
BRANCH  17  32
HETATM   32  O   LIG     1      95.556  90.920  92.028  1.00  0.00    -0.385 OA
HETATM   33  H   LIG     1      95.767  91.396  92.816  1.00  0.00     0.210 HD
ENDBRANCH  17  32
TORSDOF 5
ENDMDL
MODEL 9
REMARK VINA RESULT:      -0.0      5.875      8.056
REMARK  5 active torsions:
REMARK  status: ('A' for Active; 'I' for Inactive)
REMARK    1  A    between atoms: C_3  and  C_25 
REMARK    2  A    between atoms: C_17  and  O_32 
REMARK    3  A    between atoms: C_25  and  C_27 
REMARK    4  A    between atoms: C_27  and  C_28 
REMARK    5  A    between atoms: C_28  and  C_29 
ROOT
HETATM    1  O   LIG     1      90.251  91.408  85.338  1.00  0.00    -0.296 OA
HETATM    2  O   LIG     1      86.040  87.399  86.674  1.00  0.00    -0.296 OA
HETATM    3  C   LIG     1      91.192  86.831  86.926  1.00  0.00     0.000 C 
HETATM    4  C   LIG     1      90.173  85.661  86.831  1.00  0.00     0.000 C 
HETATM    5  C   LIG     1      90.271  88.091  87.032  1.00  0.00     0.007 C 
HETATM    6  C   LIG     1      90.905  89.423  86.524  1.00  0.00     0.065 C 
HETATM    7  C   LIG     1      89.884  90.470  86.042  1.00  0.00     0.151 C 
HETATM    8  C   LIG     1      88.789  86.270  86.539  1.00  0.00     0.000 C 
HETATM    9  C   LIG     1      89.086  87.708  86.077  1.00  0.00     0.007 C 
HETATM   10  C   LIG     1      88.414  90.251  86.463  1.00  0.00     0.065 C 
HETATM   11  C   LIG     1      87.941  88.796  86.089  1.00  0.00     0.065 C 
HETATM   12  C   LIG     1      87.332  91.350  86.133  1.00  0.00     0.007 C 
HETATM   13  C   LIG     1      87.223  91.495  84.582  1.00  0.00     0.003 C 
HETATM   14  C   LIG     1      85.900  92.043  84.069  1.00  0.00     0.029 C 
HETATM   15  C   LIG     1      86.630  88.468  86.810  1.00  0.00     0.151 C 
HETATM   16  C   LIG     1      85.969  90.958  86.876  1.00  0.00     0.010 C 
HETATM   17  C   LIG     1      84.753  91.184  84.598  1.00  0.00     0.111 C 
HETATM   18  C   LIG     1      86.034  89.595  87.639  1.00  0.00     0.065 C 
HETATM   19  C   LIG     1      84.602  91.290  86.139  1.00  0.00     0.025 C 
HETATM   20  C   LIG     1      83.454  90.342  86.572  1.00  0.00     0.002 C 
HETATM   21  C   LIG     1      84.132  92.714  86.548  1.00  0.00     0.002 C 
HETATM   22  C   LIG     1      87.787  92.721  86.706  1.00  0.00     0.000 C 
HETATM   23  C   LIG     1      89.834  88.226  88.527  1.00  0.00     0.000 C 
HETATM   24  C   LIG     1      89.497  87.574  84.572  1.00  0.00     0.000 C 
ENDROOT
BRANCH   3  25
HETATM   25  C   LIG     1      92.302  86.580  87.996  1.00  0.00     0.001 C 
HETATM   26  C   LIG     1      92.303  85.097  88.431  1.00  0.00     0.000 C 
BRANCH  25  27
HETATM   27  C   LIG     1      93.719  86.991  87.513  1.00  0.00     0.011 C 
BRANCH  27  28
HETATM   28  C   LIG     1      94.197  88.412  87.894  1.00  0.00     0.098 C 
BRANCH  28  29
HETATM   29  C   LIG     1      93.797  88.829  89.315  1.00  0.00     0.185 C 
HETATM   30  O   LIG     1      92.936  89.728  89.445  1.00  0.00    -0.647 OA
HETATM   31  O   LIG     1      94.378  88.245  90.255  1.00  0.00    -0.647 OA
ENDBRANCH  28  29
ENDBRANCH  27  28
ENDBRANCH  25  27
ENDBRANCH   3  25
BRANCH  17  32
HETATM   32  O   LIG     1      83.573  91.568  83.917  1.00  0.00    -0.385 OA
HETATM   33  H   LIG     1      83.642  92.483  83.691  1.00  0.00     0.210 HD
ENDBRANCH  17  32
TORSDOF 5
ENDMDL
