MODEL 1
REMARK VINA RESULT:      -0.0      0.000      0.000
REMARK  3 active torsions:
REMARK  status: ('A' for Active; 'I' for Inactive)
REMARK    1  A    between atoms: C_8  and  N_11 
REMARK    2  A    between atoms: N_11  and  C_13 
REMARK    3  A    between atoms: C_13  and  C_14 
ROOT
HETATM    1  N   LIG     1      92.661  94.283  97.579  1.00  0.00    -0.207 NA
HETATM    2  N   LIG     1      90.634  94.768  98.745  1.00  0.00    -0.203 NA
HETATM    3  N   LIG     1      88.575  94.122  97.616  1.00  0.00    -0.153 NA
HETATM    4  H   LIG     1      87.455  93.304  96.050  1.00  0.00     0.189 HD
HETATM    5  N   LIG     1      88.381  93.515  96.399  1.00  0.00    -0.273 N 
HETATM    6  C   LIG     1      89.917  94.236  97.733  1.00  0.00     0.187 A 
HETATM    7  C   LIG     1      90.551  93.708  96.610  1.00  0.00     0.090 A 
HETATM    8  C   LIG     1      91.968  93.742  96.553  1.00  0.00     0.143 A 
HETATM    9  C   LIG     1      89.568  93.244  95.747  1.00  0.00     0.097 A 
HETATM   10  C   LIG     1      91.961  94.763  98.611  1.00  0.00     0.202 A 
ENDROOT
BRANCH   8  11
HETATM   11  N   LIG     1      92.765  93.256  95.507  1.00  0.00    -0.353 N 
HETATM   12  H   LIG     1      92.680  92.280  95.261  1.00  0.00     0.162 HD
BRANCH  11  13
HETATM   13  C   LIG     1      93.448  94.125  94.565  1.00  0.00     0.151 C 
BRANCH  13  14
HETATM   14  C   LIG     1      92.516  95.079  93.892  1.00  0.00     0.100 A 
HETATM   15  C   LIG     1      92.383  96.440  93.932  1.00  0.00     0.024 A 
HETATM   16  C   LIG     1      91.292  96.764  93.080  1.00  0.00     0.029 A 
HETATM   17  C   LIG     1      90.835  95.577  92.584  1.00  0.00     0.122 A 
HETATM   18  O   LIG     1      91.567  94.538  93.072  1.00  0.00    -0.307 OA
ENDBRANCH  13  14
ENDBRANCH  11  13
ENDBRANCH   8  11
TORSDOF 3
ENDMDL
MODEL 2
REMARK VINA RESULT:      -0.0     11.249     13.296
REMARK  3 active torsions:
REMARK  status: ('A' for Active; 'I' for Inactive)
REMARK    1  A    between atoms: C_8  and  N_11 
REMARK    2  A    between atoms: N_11  and  C_13 
REMARK    3  A    between atoms: C_13  and  C_14 
ROOT
HETATM    1  N   LIG     1      83.318  91.249  86.039  1.00  0.00    -0.207 NA
HETATM    2  N   LIG     1      83.249  89.075  85.053  1.00  0.00    -0.203 NA
HETATM    3  N   LIG     1      81.652  87.516  86.025  1.00  0.00    -0.153 NA
HETATM    4  H   LIG     1      80.157  86.933  87.368  1.00  0.00     0.189 HD
HETATM    5  N   LIG     1      80.768  87.679  87.065  1.00  0.00    -0.273 N 
HETATM    6  C   LIG     1      82.282  88.706  85.919  1.00  0.00     0.187 A 
HETATM    7  C   LIG     1      81.800  89.600  86.874  1.00  0.00     0.090 A 
HETATM    8  C   LIG     1      82.349  90.908  86.916  1.00  0.00     0.143 A 
HETATM    9  C   LIG     1      80.827  88.945  87.616  1.00  0.00     0.097 A 
HETATM   10  C   LIG     1      83.712  90.322  85.162  1.00  0.00     0.202 A 
ENDROOT
BRANCH   8  11
HETATM   11  N   LIG     1      81.983  91.930  87.803  1.00  0.00    -0.353 N 
HETATM   12  H   LIG     1      81.018  92.228  87.810  1.00  0.00     0.162 HD
BRANCH  11  13
HETATM   13  C   LIG     1      82.820  92.347  88.915  1.00  0.00     0.151 C 
BRANCH  13  14
HETATM   14  C   LIG     1      83.185  91.208  89.811  1.00  0.00     0.100 A 
HETATM   15  C   LIG     1      84.371  90.591  90.099  1.00  0.00     0.024 A 
HETATM   16  C   LIG     1      84.070  89.550  91.021  1.00  0.00     0.029 A 
HETATM   17  C   LIG     1      82.722  89.605  91.225  1.00  0.00     0.122 A 
HETATM   18  O   LIG     1      82.165  90.608  90.491  1.00  0.00    -0.307 OA
ENDBRANCH  13  14
ENDBRANCH  11  13
ENDBRANCH   8  11
TORSDOF 3
ENDMDL
MODEL 3
REMARK VINA RESULT:       0.0     11.112     12.993
REMARK  3 active torsions:
REMARK  status: ('A' for Active; 'I' for Inactive)
REMARK    1  A    between atoms: C_8  and  N_11 
REMARK    2  A    between atoms: N_11  and  C_13 
REMARK    3  A    between atoms: C_13  and  C_14 
ROOT
HETATM    1  N   LIG     1      92.863  88.091  84.027  1.00  0.00    -0.207 NA
HETATM    2  N   LIG     1      93.817  90.268  83.792  1.00  0.00    -0.203 NA
HETATM    3  N   LIG     1      95.965  90.613  84.885  1.00  0.00    -0.153 NA
HETATM    4  H   LIG     1      97.618  90.034  86.030  1.00  0.00     0.189 HD
HETATM    5  N   LIG     1      96.734  89.750  85.628  1.00  0.00    -0.273 N 
HETATM    6  C   LIG     1      94.882  89.888  84.528  1.00  0.00     0.187 A 
HETATM    7  C   LIG     1      94.972  88.593  85.036  1.00  0.00     0.090 A 
HETATM    8  C   LIG     1      93.919  87.683  84.764  1.00  0.00     0.143 A 
HETATM    9  C   LIG     1      96.161  88.499  85.747  1.00  0.00     0.097 A 
HETATM   10  C   LIG     1      92.869  89.352  83.585  1.00  0.00     0.202 A 
ENDROOT
BRANCH   8  11
HETATM   11  N   LIG     1      93.848  86.350  85.191  1.00  0.00    -0.353 N 
HETATM   12  H   LIG     1      94.592  85.724  84.917  1.00  0.00     0.162 HD
BRANCH  11  13
HETATM   13  C   LIG     1      92.958  85.907  86.251  1.00  0.00     0.151 C 
BRANCH  13  14
HETATM   14  C   LIG     1      93.151  86.679  87.515  1.00  0.00     0.100 A 
HETATM   15  C   LIG     1      92.356  87.551  88.207  1.00  0.00     0.024 A 
HETATM   16  C   LIG     1      93.108  87.974  89.336  1.00  0.00     0.029 A 
HETATM   17  C   LIG     1      94.311  87.333  89.250  1.00  0.00     0.122 A 
HETATM   18  O   LIG     1      94.356  86.543  88.143  1.00  0.00    -0.307 OA
ENDBRANCH  13  14
ENDBRANCH  11  13
ENDBRANCH   8  11
TORSDOF 3
ENDMDL
MODEL 4
REMARK VINA RESULT:       0.0      3.581      4.862
REMARK  3 active torsions:
REMARK  status: ('A' for Active; 'I' for Inactive)
REMARK    1  A    between atoms: C_8  and  N_11 
REMARK    2  A    between atoms: N_11  and  C_13 
REMARK    3  A    between atoms: C_13  and  C_14 
ROOT
HETATM    1  N   LIG     1      91.613  89.706  93.459  1.00  0.00    -0.207 NA
HETATM    2  N   LIG     1      90.550  88.105  94.877  1.00  0.00    -0.203 NA
HETATM    3  N   LIG     1      88.315  88.685  95.650  1.00  0.00    -0.153 NA
HETATM    4  H   LIG     1      86.625  89.909  95.797  1.00  0.00     0.189 HD
HETATM    5  N   LIG     1      87.549  89.798  95.403  1.00  0.00    -0.273 N 
HETATM    6  C   LIG     1      89.461  88.897  94.966  1.00  0.00     0.187 A 
HETATM    7  C   LIG     1      89.413  90.121  94.300  1.00  0.00     0.090 A 
HETATM    8  C   LIG     1      90.535  90.517  93.528  1.00  0.00     0.143 A 
HETATM    9  C   LIG     1      88.186  90.707  94.579  1.00  0.00     0.097 A 
HETATM   10  C   LIG     1      91.562  88.553  94.133  1.00  0.00     0.202 A 
ENDROOT
BRANCH   8  11
HETATM   11  N   LIG     1      90.656  91.706  92.795  1.00  0.00    -0.353 N 
HETATM   12  H   LIG     1      89.971  91.891  92.076  1.00  0.00     0.162 HD
BRANCH  11  13
HETATM   13  C   LIG     1      91.495  92.813  93.220  1.00  0.00     0.151 C 
BRANCH  13  14
HETATM   14  C   LIG     1      91.170  93.275  94.603  1.00  0.00     0.100 A 
HETATM   15  C   LIG     1      91.863  93.249  95.782  1.00  0.00     0.024 A 
HETATM   16  C   LIG     1      91.010  93.826  96.764  1.00  0.00     0.029 A 
HETATM   17  C   LIG     1      89.857  94.158  96.113  1.00  0.00     0.122 A 
HETATM   18  O   LIG     1      89.935  93.824  94.796  1.00  0.00    -0.307 OA
ENDBRANCH  13  14
ENDBRANCH  11  13
ENDBRANCH   8  11
TORSDOF 3
ENDMDL
MODEL 5
REMARK VINA RESULT:       0.0     10.939     12.681
REMARK  3 active torsions:
REMARK  status: ('A' for Active; 'I' for Inactive)
REMARK    1  A    between atoms: C_8  and  N_11 
REMARK    2  A    between atoms: N_11  and  C_13 
REMARK    3  A    between atoms: C_13  and  C_14 
ROOT
HETATM    1  N   LIG     1      85.887  89.265  87.897  1.00  0.00    -0.207 NA
HETATM    2  N   LIG     1      84.093  89.028  86.339  1.00  0.00    -0.203 NA
HETATM    3  N   LIG     1      82.359  87.431  86.947  1.00  0.00    -0.153 NA
HETATM    4  H   LIG     1      81.453  86.002  88.178  1.00  0.00     0.189 HD
HETATM    5  N   LIG     1      82.238  86.629  88.056  1.00  0.00    -0.273 N 
HETATM    6  C   LIG     1      83.511  88.110  87.139  1.00  0.00     0.187 A 
HETATM    7  C   LIG     1      84.101  87.741  88.347  1.00  0.00     0.090 A 
HETATM    8  C   LIG     1      85.326  88.352  88.718  1.00  0.00     0.143 A 
HETATM    9  C   LIG     1      83.286  86.787  88.942  1.00  0.00     0.097 A 
HETATM   10  C   LIG     1      85.246  89.552  86.761  1.00  0.00     0.202 A 
ENDROOT
BRANCH   8  11
HETATM   11  N   LIG     1      86.051  88.104  89.892  1.00  0.00    -0.353 N 
HETATM   12  H   LIG     1      85.589  88.263  90.776  1.00  0.00     0.162 HD
BRANCH  11  13
HETATM   13  C   LIG     1      87.285  87.338  89.911  1.00  0.00     0.151 C 
BRANCH  13  14
HETATM   14  C   LIG     1      87.125  85.986  89.295  1.00  0.00     0.100 A 
HETATM   15  C   LIG     1      87.638  85.408  88.166  1.00  0.00     0.024 A 
HETATM   16  C   LIG     1      87.099  84.094  88.105  1.00  0.00     0.029 A 
HETATM   17  C   LIG     1      86.292  83.966  89.200  1.00  0.00     0.122 A 
HETATM   18  O   LIG     1      86.293  85.112  89.934  1.00  0.00    -0.307 OA
ENDBRANCH  13  14
ENDBRANCH  11  13
ENDBRANCH   8  11
TORSDOF 3
ENDMDL
MODEL 6
REMARK VINA RESULT:       0.0      4.271      6.232
REMARK  3 active torsions:
REMARK  status: ('A' for Active; 'I' for Inactive)
REMARK    1  A    between atoms: C_8  and  N_11 
REMARK    2  A    between atoms: N_11  and  C_13 
REMARK    3  A    between atoms: C_13  and  C_14 
ROOT
HETATM    1  N   LIG     1      88.071  91.993  91.742  1.00  0.00    -0.207 NA
HETATM    2  N   LIG     1      87.363  93.446  93.500  1.00  0.00    -0.203 NA
HETATM    3  N   LIG     1      88.904  93.685  95.370  1.00  0.00    -0.153 NA
HETATM    4  H   LIG     1      90.671  93.304  96.423  1.00  0.00     0.189 HD
HETATM    5  N   LIG     1      90.134  93.113  95.587  1.00  0.00    -0.273 N 
HETATM    6  C   LIG     1      88.506  93.200  94.173  1.00  0.00     0.187 A 
HETATM    7  C   LIG     1      89.471  92.341  93.649  1.00  0.00     0.090 A 
HETATM    8  C   LIG     1      89.226  91.731  92.392  1.00  0.00     0.143 A 
HETATM    9  C   LIG     1      90.521  92.280  94.555  1.00  0.00     0.097 A 
HETATM   10  C   LIG     1      87.209  92.830  92.326  1.00  0.00     0.202 A 
ENDROOT
BRANCH   8  11
HETATM   11  N   LIG     1      90.083  90.849  91.720  1.00  0.00    -0.353 N 
HETATM   12  H   LIG     1      91.012  91.173  91.492  1.00  0.00     0.162 HD
BRANCH  11  13
HETATM   13  C   LIG     1      89.831  89.422  91.625  1.00  0.00     0.151 C 
BRANCH  13  14
HETATM   14  C   LIG     1      89.642  88.787  92.964  1.00  0.00     0.100 A 
HETATM   15  C   LIG     1      88.569  88.197  93.574  1.00  0.00     0.024 A 
HETATM   16  C   LIG     1      89.009  87.796  94.865  1.00  0.00     0.029 A 
HETATM   17  C   LIG     1      90.318  88.174  94.952  1.00  0.00     0.122 A 
HETATM   18  O   LIG     1      90.719  88.784  93.803  1.00  0.00    -0.307 OA
ENDBRANCH  13  14
ENDBRANCH  11  13
ENDBRANCH   8  11
TORSDOF 3
ENDMDL
MODEL 7
REMARK VINA RESULT:       0.0      5.638      7.333
REMARK  3 active torsions:
REMARK  status: ('A' for Active; 'I' for Inactive)
REMARK    1  A    between atoms: C_8  and  N_11 
REMARK    2  A    between atoms: N_11  and  C_13 
REMARK    3  A    between atoms: C_13  and  C_14 
ROOT
HETATM    1  N   LIG     1      91.209  91.095  90.359  1.00  0.00    -0.207 NA
HETATM    2  N   LIG     1      91.596  88.890  89.525  1.00  0.00    -0.203 NA
HETATM    3  N   LIG     1      90.454  87.091  90.703  1.00  0.00    -0.153 NA
HETATM    4  H   LIG     1      89.203  86.293  92.178  1.00  0.00     0.189 HD
HETATM    5  N   LIG     1      89.609  87.132  91.786  1.00  0.00    -0.273 N 
HETATM    6  C   LIG     1      90.785  88.381  90.477  1.00  0.00     0.187 A 
HETATM    7  C   LIG     1      90.158  89.216  91.400  1.00  0.00     0.090 A 
HETATM    8  C   LIG     1      90.390  90.613  91.319  1.00  0.00     0.143 A 
HETATM    9  C   LIG     1      89.401  88.418  92.247  1.00  0.00     0.097 A 
HETATM   10  C   LIG     1      91.763  90.214  89.521  1.00  0.00     0.202 A 
ENDROOT
BRANCH   8  11
HETATM   11  N   LIG     1      89.842  91.592  92.159  1.00  0.00    -0.353 N 
HETATM   12  H   LIG     1      88.836  91.662  92.210  1.00  0.00     0.162 HD
BRANCH  11  13
HETATM   13  C   LIG     1      90.613  92.276  93.183  1.00  0.00     0.151 C 
BRANCH  13  14
HETATM   14  C   LIG     1      91.277  91.325  94.125  1.00  0.00     0.100 A 
HETATM   15  C   LIG     1      92.586  91.019  94.373  1.00  0.00     0.024 A 
HETATM   16  C   LIG     1      92.582  90.014  95.380  1.00  0.00     0.029 A 
HETATM   17  C   LIG     1      91.269  89.777  95.670  1.00  0.00     0.122 A 
HETATM   18  O   LIG     1      90.459  90.564  94.910  1.00  0.00    -0.307 OA
ENDBRANCH  13  14
ENDBRANCH  11  13
ENDBRANCH   8  11
TORSDOF 3
ENDMDL
MODEL 8
REMARK VINA RESULT:       0.0      6.393      8.271
REMARK  3 active torsions:
REMARK  status: ('A' for Active; 'I' for Inactive)
REMARK    1  A    between atoms: C_8  and  N_11 
REMARK    2  A    between atoms: N_11  and  C_13 
REMARK    3  A    between atoms: C_13  and  C_14 
ROOT
HETATM    1  N   LIG     1      91.209  91.095  90.359  1.00  0.00    -0.207 NA
HETATM    2  N   LIG     1      91.740  89.893  88.364  1.00  0.00    -0.203 NA
HETATM    3  N   LIG     1      92.217  87.522  88.646  1.00  0.00    -0.153 NA
HETATM    4  H   LIG     1      92.453  85.759  89.748  1.00  0.00     0.189 HD
HETATM    5  N   LIG     1      92.233  86.746  89.779  1.00  0.00    -0.273 N 
HETATM    6  C   LIG     1      91.888  88.758  89.080  1.00  0.00     0.187 A 
HETATM    7  C   LIG     1      91.698  88.756  90.461  1.00  0.00     0.090 A 
HETATM    8  C   LIG     1      91.347  89.973  91.099  1.00  0.00     0.143 A 
HETATM    9  C   LIG     1      91.920  87.464  90.917  1.00  0.00     0.097 A 
HETATM   10  C   LIG     1      91.412  90.994  89.042  1.00  0.00     0.202 A 
ENDROOT
BRANCH   8  11
HETATM   11  N   LIG     1      91.116  90.151  92.470  1.00  0.00    -0.353 N 
HETATM   12  H   LIG     1      90.390  89.599  92.904  1.00  0.00     0.162 HD
BRANCH  11  13
HETATM   13  C   LIG     1      92.057  90.827  93.348  1.00  0.00     0.151 C 
BRANCH  13  14
HETATM   14  C   LIG     1      93.423  90.224  93.289  1.00  0.00     0.100 A 
HETATM   15  C   LIG     1      94.629  90.689  92.841  1.00  0.00     0.024 A 
HETATM   16  C   LIG     1      95.564  89.636  93.036  1.00  0.00     0.029 A 
HETATM   17  C   LIG     1      94.860  88.603  93.585  1.00  0.00     0.122 A 
HETATM   18  O   LIG     1      93.552  88.943  93.742  1.00  0.00    -0.307 OA
ENDBRANCH  13  14
ENDBRANCH  11  13
ENDBRANCH   8  11
TORSDOF 3
ENDMDL
MODEL 9
REMARK VINA RESULT:       0.0      5.968      7.386
REMARK  3 active torsions:
REMARK  status: ('A' for Active; 'I' for Inactive)
REMARK    1  A    between atoms: C_8  and  N_11 
REMARK    2  A    between atoms: N_11  and  C_13 
REMARK    3  A    between atoms: C_13  and  C_14 
ROOT
HETATM    1  N   LIG     1      86.932  93.036  93.008  1.00  0.00    -0.207 NA
HETATM    2  N   LIG     1      87.158  90.914  94.082  1.00  0.00    -0.203 NA
HETATM    3  N   LIG     1      85.100  89.925  94.928  1.00  0.00    -0.153 NA
HETATM    4  H   LIG     1      83.040  89.868  95.289  1.00  0.00     0.189 HD
HETATM    5  N   LIG     1      83.808  90.391  94.891  1.00  0.00    -0.273 N 
HETATM    6  C   LIG     1      85.828  90.881  94.309  1.00  0.00     0.187 A 
HETATM    7  C   LIG     1      85.006  91.926  93.890  1.00  0.00     0.090 A 
HETATM    8  C   LIG     1      85.598  93.027  93.220  1.00  0.00     0.143 A 
HETATM    9  C   LIG     1      83.705  91.618  94.263  1.00  0.00     0.097 A 
HETATM   10  C   LIG     1      87.634  91.987  93.448  1.00  0.00     0.202 A 
ENDROOT
BRANCH   8  11
HETATM   11  N   LIG     1      84.926  94.155  92.729  1.00  0.00    -0.353 N 
HETATM   12  H   LIG     1      84.190  94.011  92.053  1.00  0.00     0.162 HD
BRANCH  11  13
HETATM   13  C   LIG     1      85.002  95.458  93.367  1.00  0.00     0.151 C 
BRANCH  13  14
HETATM   14  C   LIG     1      84.617  95.409  94.810  1.00  0.00     0.100 A 
HETATM   15  C   LIG     1      85.314  95.610  95.969  1.00  0.00     0.024 A 
HETATM   16  C   LIG     1      84.395  95.403  97.034  1.00  0.00     0.029 A 
HETATM   17  C   LIG     1      83.203  95.087  96.448  1.00  0.00     0.122 A 
HETATM   18  O   LIG     1      83.322  95.081  95.092  1.00  0.00    -0.307 OA
ENDBRANCH  13  14
ENDBRANCH  11  13
ENDBRANCH   8  11
TORSDOF 3
ENDMDL
