MODEL 1
REMARK VINA RESULT:       0.0      0.000      0.000
REMARK  5 active torsions:
REMARK  status: ('A' for Active; 'I' for Inactive)
REMARK    1  A    between atoms: C_2  and  C_8 
REMARK    2  A    between atoms: C_3  and  O_21 
REMARK    3  A    between atoms: C_5  and  O_19 
REMARK    4  A    between atoms: C_9  and  O_15 
REMARK    5  A    between atoms: C_12  and  O_17 
ROOT
HETATM    1  C   LIG     1      89.506  93.592  91.041  1.00  0.00     0.026 A 
HETATM    2  C   LIG     1      89.657  92.321  90.445  1.00  0.00     0.026 A 
HETATM    3  C   LIG     1      89.684  94.773  90.296  1.00  0.00     0.086 A 
HETATM    4  C   LIG     1      90.022  94.699  88.927  1.00  0.00     0.002 A 
HETATM    5  C   LIG     1      89.995  92.255  89.070  1.00  0.00     0.089 A 
HETATM    6  C   LIG     1      90.175  93.436  88.322  1.00  0.00     0.022 A 
HETATM    7  C   LIG     1      90.218  95.960  88.107  1.00  0.00     0.033 C 
ENDROOT
BRANCH   2   8
HETATM    8  C   LIG     1      89.468  91.103  91.258  1.00  0.00     0.026 A 
HETATM    9  C   LIG     1      90.564  90.555  91.961  1.00  0.00     0.026 A 
HETATM   10  C   LIG     1      90.418  89.398  92.751  1.00  0.00     0.086 A 
HETATM   11  C   LIG     1      89.159  88.770  92.851  1.00  0.00     0.002 A 
HETATM   12  C   LIG     1      88.982  87.522  93.699  1.00  0.00     0.033 C 
HETATM   13  C   LIG     1      88.059  89.308  92.156  1.00  0.00     0.022 A 
HETATM   14  C   LIG     1      88.209  90.465  91.364  1.00  0.00     0.089 A 
BRANCH  10  15
HETATM   15  O   LIG     1      91.501  88.898  93.414  1.00  0.00    -0.359 OA
HETATM   16  H   LIG     1      92.312  89.320  93.175  1.00  0.00     0.217 HD
ENDBRANCH  10  15
BRANCH  14  17
HETATM   17  O   LIG     1      87.121  90.951  90.697  1.00  0.00    -0.359 OA
HETATM   18  H   LIG     1      86.882  90.432  89.944  1.00  0.00     0.217 HD
ENDBRANCH  14  17
ENDBRANCH   2   8
BRANCH   5  19
HETATM   19  O   LIG     1      90.144  91.049  88.445  1.00  0.00    -0.359 OA
HETATM   20  H   LIG     1      89.322  90.661  88.185  1.00  0.00     0.217 HD
ENDBRANCH   5  19
BRANCH   3  21
HETATM   21  O   LIG     1      89.529  95.981  90.913  1.00  0.00    -0.359 OA
HETATM   22  H   LIG     1      89.604  96.712  90.318  1.00  0.00     0.217 HD
ENDBRANCH   3  21
TORSDOF 5
ENDMDL
MODEL 2
REMARK VINA RESULT:       0.0      3.255      7.010
REMARK  5 active torsions:
REMARK  status: ('A' for Active; 'I' for Inactive)
REMARK    1  A    between atoms: C_2  and  C_8 
REMARK    2  A    between atoms: C_3  and  O_21 
REMARK    3  A    between atoms: C_5  and  O_19 
REMARK    4  A    between atoms: C_9  and  O_15 
REMARK    5  A    between atoms: C_12  and  O_17 
ROOT
HETATM    1  C   LIG     1      87.468  90.361  94.766  1.00  0.00     0.026 A 
HETATM    2  C   LIG     1      88.873  90.443  94.882  1.00  0.00     0.026 A 
HETATM    3  C   LIG     1      86.761  89.244  95.249  1.00  0.00     0.086 A 
HETATM    4  C   LIG     1      87.457  88.179  95.862  1.00  0.00     0.002 A 
HETATM    5  C   LIG     1      89.564  89.371  95.499  1.00  0.00     0.089 A 
HETATM    6  C   LIG     1      88.859  88.251  95.984  1.00  0.00     0.022 A 
HETATM    7  C   LIG     1      86.713  86.967  96.390  1.00  0.00     0.033 C 
ENDROOT
BRANCH   2   8
HETATM    8  C   LIG     1      89.583  91.627  94.358  1.00  0.00     0.026 A 
HETATM    9  C   LIG     1      90.009  91.648  93.011  1.00  0.00     0.026 A 
HETATM   10  C   LIG     1      90.683  92.763  92.478  1.00  0.00     0.086 A 
HETATM   11  C   LIG     1      90.940  93.886  93.292  1.00  0.00     0.002 A 
HETATM   12  C   LIG     1      91.665  95.097  92.734  1.00  0.00     0.033 C 
HETATM   13  C   LIG     1      90.519  93.877  94.637  1.00  0.00     0.022 A 
HETATM   14  C   LIG     1      89.846  92.758  95.168  1.00  0.00     0.089 A 
BRANCH  10  15
HETATM   15  O   LIG     1      91.080  92.745  91.172  1.00  0.00    -0.359 OA
HETATM   16  H   LIG     1      91.974  92.462  91.058  1.00  0.00     0.217 HD
ENDBRANCH  10  15
BRANCH  14  17
HETATM   17  O   LIG     1      89.463  92.783  96.479  1.00  0.00    -0.359 OA
HETATM   18  H   LIG     1      89.417  91.924  96.871  1.00  0.00     0.217 HD
ENDBRANCH  14  17
ENDBRANCH   2   8
BRANCH   5  19
HETATM   19  O   LIG     1      90.923  89.407  95.643  1.00  0.00    -0.359 OA
HETATM   20  H   LIG     1      91.209  89.205  96.521  1.00  0.00     0.217 HD
ENDBRANCH   5  19
BRANCH   3  21
HETATM   21  O   LIG     1      85.402  89.205  95.115  1.00  0.00    -0.359 OA
HETATM   22  H   LIG     1      84.952  89.720  95.767  1.00  0.00     0.217 HD
ENDBRANCH   3  21
TORSDOF 5
ENDMDL
MODEL 3
REMARK VINA RESULT:       0.0      4.220      6.510
REMARK  5 active torsions:
REMARK  status: ('A' for Active; 'I' for Inactive)
REMARK    1  A    between atoms: C_2  and  C_8 
REMARK    2  A    between atoms: C_3  and  O_21 
REMARK    3  A    between atoms: C_5  and  O_19 
REMARK    4  A    between atoms: C_9  and  O_15 
REMARK    5  A    between atoms: C_12  and  O_17 
ROOT
HETATM    1  C   LIG     1      91.931  91.016  87.742  1.00  0.00     0.026 A 
HETATM    2  C   LIG     1      92.034  92.371  87.359  1.00  0.00     0.026 A 
HETATM    3  C   LIG     1      92.004  89.982  86.790  1.00  0.00     0.086 A 
HETATM    4  C   LIG     1      92.184  90.292  85.424  1.00  0.00     0.002 A 
HETATM    5  C   LIG     1      92.215  92.674  85.987  1.00  0.00     0.089 A 
HETATM    6  C   LIG     1      92.289  91.641  85.031  1.00  0.00     0.022 A 
HETATM    7  C   LIG     1      92.266  89.192  84.382  1.00  0.00     0.033 C 
ENDROOT
BRANCH   2   8
HETATM    8  C   LIG     1      91.946  93.430  88.385  1.00  0.00     0.026 A 
HETATM    9  C   LIG     1      90.684  93.954  88.742  1.00  0.00     0.026 A 
HETATM   10  C   LIG     1      90.563  94.960  89.720  1.00  0.00     0.086 A 
HETATM   11  C   LIG     1      91.716  95.459  90.362  1.00  0.00     0.002 A 
HETATM   12  C   LIG     1      91.605  96.542  91.420  1.00  0.00     0.033 C 
HETATM   13  C   LIG     1      92.980  94.942  90.015  1.00  0.00     0.022 A 
HETATM   14  C   LIG     1      93.097  93.937  89.034  1.00  0.00     0.089 A 
BRANCH  10  15
HETATM   15  O   LIG     1      89.326  95.443  90.037  1.00  0.00    -0.359 OA
HETATM   16  H   LIG     1      89.044  96.145  89.470  1.00  0.00     0.217 HD
ENDBRANCH  10  15
BRANCH  14  17
HETATM   17  O   LIG     1      94.341  93.469  88.718  1.00  0.00    -0.359 OA
HETATM   18  H   LIG     1      94.571  93.604  87.811  1.00  0.00     0.217 HD
ENDBRANCH  14  17
ENDBRANCH   2   8
BRANCH   5  19
HETATM   19  O   LIG     1      92.329  93.970  85.567  1.00  0.00    -0.359 OA
HETATM   20  H   LIG     1      92.695  94.543  86.224  1.00  0.00     0.217 HD
ENDBRANCH   5  19
BRANCH   3  21
HETATM   21  O   LIG     1      91.899  88.684  87.203  1.00  0.00    -0.359 OA
HETATM   22  H   LIG     1      91.666  88.605  88.116  1.00  0.00     0.217 HD
ENDBRANCH   3  21
TORSDOF 5
ENDMDL
MODEL 4
REMARK VINA RESULT:       0.0      6.913      9.224
REMARK  5 active torsions:
REMARK  status: ('A' for Active; 'I' for Inactive)
REMARK    1  A    between atoms: C_2  and  C_8 
REMARK    2  A    between atoms: C_3  and  O_21 
REMARK    3  A    between atoms: C_5  and  O_19 
REMARK    4  A    between atoms: C_9  and  O_15 
REMARK    5  A    between atoms: C_12  and  O_17 
ROOT
HETATM    1  C   LIG     1      82.936  95.602  88.210  1.00  0.00     0.026 A 
HETATM    2  C   LIG     1      83.544  94.438  87.691  1.00  0.00     0.026 A 
HETATM    3  C   LIG     1      82.493  95.660  89.544  1.00  0.00     0.086 A 
HETATM    4  C   LIG     1      82.653  94.540  90.389  1.00  0.00     0.002 A 
HETATM    5  C   LIG     1      83.701  93.319  88.545  1.00  0.00     0.089 A 
HETATM    6  C   LIG     1      83.259  93.374  89.882  1.00  0.00     0.022 A 
HETATM    7  C   LIG     1      82.182  94.583  91.832  1.00  0.00     0.033 C 
ENDROOT
BRANCH   2   8
HETATM    8  C   LIG     1      83.991  94.411  86.283  1.00  0.00     0.026 A 
HETATM    9  C   LIG     1      83.090  94.011  85.271  1.00  0.00     0.026 A 
HETATM   10  C   LIG     1      83.482  93.979  83.919  1.00  0.00     0.086 A 
HETATM   11  C   LIG     1      84.793  94.354  83.557  1.00  0.00     0.002 A 
HETATM   12  C   LIG     1      85.232  94.327  82.104  1.00  0.00     0.033 C 
HETATM   13  C   LIG     1      85.699  94.756  84.558  1.00  0.00     0.022 A 
HETATM   14  C   LIG     1      85.305  94.785  85.911  1.00  0.00     0.089 A 
BRANCH  10  15
HETATM   15  O   LIG     1      82.584  93.586  82.970  1.00  0.00    -0.359 OA
HETATM   16  H   LIG     1      82.829  92.784  82.534  1.00  0.00     0.217 HD
ENDBRANCH  10  15
BRANCH  14  17
HETATM   17  O   LIG     1      86.216  95.170  86.853  1.00  0.00    -0.359 OA
HETATM   18  H   LIG     1      86.617  96.004  86.665  1.00  0.00     0.217 HD
ENDBRANCH  14  17
ENDBRANCH   2   8
BRANCH   5  19
HETATM   19  O   LIG     1      84.292  92.173  88.093  1.00  0.00    -0.359 OA
HETATM   20  H   LIG     1      84.191  92.044  87.162  1.00  0.00     0.217 HD
ENDBRANCH   5  19
BRANCH   3  21
HETATM   21  O   LIG     1      81.910  96.806  90.005  1.00  0.00    -0.359 OA
HETATM   22  H   LIG     1      81.942  96.884  90.947  1.00  0.00     0.217 HD
ENDBRANCH   3  21
TORSDOF 5
ENDMDL
MODEL 5
REMARK VINA RESULT:       0.0      2.759      5.418
REMARK  5 active torsions:
REMARK  status: ('A' for Active; 'I' for Inactive)
REMARK    1  A    between atoms: C_2  and  C_8 
REMARK    2  A    between atoms: C_3  and  O_21 
REMARK    3  A    between atoms: C_5  and  O_19 
REMARK    4  A    between atoms: C_9  and  O_15 
REMARK    5  A    between atoms: C_12  and  O_17 
ROOT
HETATM    1  C   LIG     1      89.824  91.372  88.866  1.00  0.00     0.026 A 
HETATM    2  C   LIG     1      89.301  92.229  89.858  1.00  0.00     0.026 A 
HETATM    3  C   LIG     1      89.060  90.313  88.340  1.00  0.00     0.086 A 
HETATM    4  C   LIG     1      87.745  90.094  88.805  1.00  0.00     0.002 A 
HETATM    5  C   LIG     1      87.980  92.003  90.319  1.00  0.00     0.089 A 
HETATM    6  C   LIG     1      87.212  90.944  89.794  1.00  0.00     0.022 A 
HETATM    7  C   LIG     1      86.904  88.959  88.250  1.00  0.00     0.033 C 
ENDROOT
BRANCH   2   8
HETATM    8  C   LIG     1      90.134  93.325  90.391  1.00  0.00     0.026 A 
HETATM    9  C   LIG     1      90.983  93.085  91.494  1.00  0.00     0.026 A 
HETATM   10  C   LIG     1      91.795  94.106  92.024  1.00  0.00     0.086 A 
HETATM   11  C   LIG     1      91.770  95.395  91.450  1.00  0.00     0.002 A 
HETATM   12  C   LIG     1      92.639  96.508  92.008  1.00  0.00     0.033 C 
HETATM   13  C   LIG     1      90.927  95.646  90.349  1.00  0.00     0.022 A 
HETATM   14  C   LIG     1      90.114  94.622  89.822  1.00  0.00     0.089 A 
BRANCH  10  15
HETATM   15  O   LIG     1      92.602  93.836  93.092  1.00  0.00    -0.359 OA
HETATM   16  H   LIG     1      93.271  94.490  93.229  1.00  0.00     0.217 HD
ENDBRANCH  10  15
BRANCH  14  17
HETATM   17  O   LIG     1      89.303  94.907  88.761  1.00  0.00    -0.359 OA
HETATM   18  H   LIG     1      89.595  94.515  87.952  1.00  0.00     0.217 HD
ENDBRANCH  14  17
ENDBRANCH   2   8
BRANCH   5  19
HETATM   19  O   LIG     1      87.425  92.811  91.271  1.00  0.00    -0.359 OA
HETATM   20  H   LIG     1      86.849  93.468  90.912  1.00  0.00     0.217 HD
ENDBRANCH   5  19
BRANCH   3  21
HETATM   21  O   LIG     1      89.605  89.507  87.382  1.00  0.00    -0.359 OA
HETATM   22  H   LIG     1      90.413  89.101  87.657  1.00  0.00     0.217 HD
ENDBRANCH   3  21
TORSDOF 5
ENDMDL
MODEL 6
REMARK VINA RESULT:       0.0      6.287      8.357
REMARK  5 active torsions:
REMARK  status: ('A' for Active; 'I' for Inactive)
REMARK    1  A    between atoms: C_2  and  C_8 
REMARK    2  A    between atoms: C_3  and  O_21 
REMARK    3  A    between atoms: C_5  and  O_19 
REMARK    4  A    between atoms: C_9  and  O_15 
REMARK    5  A    between atoms: C_12  and  O_17 
ROOT
HETATM    1  C   LIG     1      87.573  88.052  88.209  1.00  0.00     0.026 A 
HETATM    2  C   LIG     1      86.653  87.402  87.357  1.00  0.00     0.026 A 
HETATM    3  C   LIG     1      87.185  88.520  89.479  1.00  0.00     0.086 A 
HETATM    4  C   LIG     1      85.856  88.342  89.920  1.00  0.00     0.002 A 
HETATM    5  C   LIG     1      85.321  87.227  87.807  1.00  0.00     0.089 A 
HETATM    6  C   LIG     1      84.930  87.694  89.078  1.00  0.00     0.022 A 
HETATM    7  C   LIG     1      85.418  88.839  91.286  1.00  0.00     0.033 C 
ENDROOT
BRANCH   2   8
HETATM    8  C   LIG     1      87.094  86.930  86.029  1.00  0.00     0.026 A 
HETATM    9  C   LIG     1      87.024  87.802  84.919  1.00  0.00     0.026 A 
HETATM   10  C   LIG     1      87.441  87.386  83.639  1.00  0.00     0.086 A 
HETATM   11  C   LIG     1      87.941  86.081  83.452  1.00  0.00     0.002 A 
HETATM   12  C   LIG     1      88.396  85.615  82.080  1.00  0.00     0.033 C 
HETATM   13  C   LIG     1      88.016  85.203  84.552  1.00  0.00     0.022 A 
HETATM   14  C   LIG     1      87.596  85.622  85.831  1.00  0.00     0.089 A 
BRANCH  10  15
HETATM   15  O   LIG     1      87.357  88.256  82.591  1.00  0.00    -0.359 OA
HETATM   16  H   LIG     1      88.062  88.160  81.970  1.00  0.00     0.217 HD
ENDBRANCH  10  15
BRANCH  14  17
HETATM   17  O   LIG     1      87.675  84.739  86.870  1.00  0.00    -0.359 OA
HETATM   18  H   LIG     1      88.235  85.036  87.571  1.00  0.00     0.217 HD
ENDBRANCH  14  17
ENDBRANCH   2   8
BRANCH   5  19
HETATM   19  O   LIG     1      84.397  86.596  87.024  1.00  0.00    -0.359 OA
HETATM   20  H   LIG     1      83.584  86.422  87.473  1.00  0.00     0.217 HD
ENDBRANCH   5  19
BRANCH   3  21
HETATM   21  O   LIG     1      88.107  89.143  90.271  1.00  0.00    -0.359 OA
HETATM   22  H   LIG     1      87.848  89.181  91.179  1.00  0.00     0.217 HD
ENDBRANCH   3  21
TORSDOF 5
ENDMDL
MODEL 7
REMARK VINA RESULT:       0.0      5.457      6.327
REMARK  5 active torsions:
REMARK  status: ('A' for Active; 'I' for Inactive)
REMARK    1  A    between atoms: C_2  and  C_8 
REMARK    2  A    between atoms: C_3  and  O_21 
REMARK    3  A    between atoms: C_5  and  O_19 
REMARK    4  A    between atoms: C_9  and  O_15 
REMARK    5  A    between atoms: C_12  and  O_17 
ROOT
HETATM    1  C   LIG     1      90.874  95.246  93.868  1.00  0.00     0.026 A 
HETATM    2  C   LIG     1      91.891  94.343  94.246  1.00  0.00     0.026 A 
HETATM    3  C   LIG     1      90.400  95.297  92.543  1.00  0.00     0.086 A 
HETATM    4  C   LIG     1      90.944  94.435  91.566  1.00  0.00     0.002 A 
HETATM    5  C   LIG     1      92.431  93.481  93.260  1.00  0.00     0.089 A 
HETATM    6  C   LIG     1      91.959  93.529  91.933  1.00  0.00     0.022 A 
HETATM    7  C   LIG     1      90.447  94.473  90.133  1.00  0.00     0.033 C 
ENDROOT
BRANCH   2   8
HETATM    8  C   LIG     1      92.368  94.322  95.644  1.00  0.00     0.026 A 
HETATM    9  C   LIG     1      93.419  95.180  96.037  1.00  0.00     0.026 A 
HETATM   10  C   LIG     1      93.894  95.189  97.363  1.00  0.00     0.086 A 
HETATM   11  C   LIG     1      93.316  94.334  98.323  1.00  0.00     0.002 A 
HETATM   12  C   LIG     1      93.815  94.331  99.757  1.00  0.00     0.033 C 
HETATM   13  C   LIG     1      92.266  93.475  97.943  1.00  0.00     0.022 A 
HETATM   14  C   LIG     1      91.794  93.466  96.615  1.00  0.00     0.089 A 
BRANCH  10  15
HETATM   15  O   LIG     1      94.913  96.032  97.704  1.00  0.00    -0.359 OA
HETATM   16  H   LIG     1      95.176  96.603  96.998  1.00  0.00     0.217 HD
ENDBRANCH  10  15
BRANCH  14  17
HETATM   17  O   LIG     1      90.782  92.611  96.283  1.00  0.00    -0.359 OA
HETATM   18  H   LIG     1      90.169  92.981  95.666  1.00  0.00     0.217 HD
ENDBRANCH  14  17
ENDBRANCH   2   8
BRANCH   5  19
HETATM   19  O   LIG     1      93.411  92.583  93.579  1.00  0.00    -0.359 OA
HETATM   20  H   LIG     1      93.277  92.168  94.418  1.00  0.00     0.217 HD
ENDBRANCH   5  19
BRANCH   3  21
HETATM   21  O   LIG     1      89.415  96.186  92.220  1.00  0.00    -0.359 OA
HETATM   22  H   LIG     1      88.846  96.387  92.947  1.00  0.00     0.217 HD
ENDBRANCH   3  21
TORSDOF 5
ENDMDL
MODEL 8
REMARK VINA RESULT:       0.0      5.677      8.300
REMARK  5 active torsions:
REMARK  status: ('A' for Active; 'I' for Inactive)
REMARK    1  A    between atoms: C_2  and  C_8 
REMARK    2  A    between atoms: C_3  and  O_21 
REMARK    3  A    between atoms: C_5  and  O_19 
REMARK    4  A    between atoms: C_9  and  O_15 
REMARK    5  A    between atoms: C_12  and  O_17 
ROOT
HETATM    1  C   LIG     1      92.407  86.245  92.788  1.00  0.00     0.026 A 
HETATM    2  C   LIG     1      92.882  84.952  92.479  1.00  0.00     0.026 A 
HETATM    3  C   LIG     1      92.469  87.289  91.846  1.00  0.00     0.086 A 
HETATM    4  C   LIG     1      93.015  87.052  90.566  1.00  0.00     0.002 A 
HETATM    5  C   LIG     1      93.427  84.722  91.192  1.00  0.00     0.089 A 
HETATM    6  C   LIG     1      93.490  85.765  90.246  1.00  0.00     0.022 A 
HETATM    7  C   LIG     1      93.090  88.164  89.535  1.00  0.00     0.033 C 
ENDROOT
BRANCH   2   8
HETATM    8  C   LIG     1      92.807  83.883  93.495  1.00  0.00     0.026 A 
HETATM    9  C   LIG     1      93.869  83.711  94.410  1.00  0.00     0.026 A 
HETATM   10  C   LIG     1      93.828  82.705  95.394  1.00  0.00     0.086 A 
HETATM   11  C   LIG     1      92.709  81.850  95.480  1.00  0.00     0.002 A 
HETATM   12  C   LIG     1      92.646  80.761  96.535  1.00  0.00     0.033 C 
HETATM   13  C   LIG     1      91.643  82.013  94.573  1.00  0.00     0.022 A 
HETATM   14  C   LIG     1      91.688  83.020  93.587  1.00  0.00     0.089 A 
BRANCH  10  15
HETATM   15  O   LIG     1      94.875  82.570  96.260  1.00  0.00    -0.359 OA
HETATM   16  H   LIG     1      95.057  81.670  96.486  1.00  0.00     0.217 HD
ENDBRANCH  10  15
BRANCH  14  17
HETATM   17  O   LIG     1      90.640  83.139  92.720  1.00  0.00    -0.359 OA
HETATM   18  H   LIG     1      89.813  82.875  93.095  1.00  0.00     0.217 HD
ENDBRANCH  14  17
ENDBRANCH   2   8
BRANCH   5  19
HETATM   19  O   LIG     1      93.891  83.485  90.841  1.00  0.00    -0.359 OA
HETATM   20  H   LIG     1      93.308  83.019  90.262  1.00  0.00     0.217 HD
ENDBRANCH   5  19
BRANCH   3  21
HETATM   21  O   LIG     1      91.999  88.525  92.187  1.00  0.00    -0.359 OA
HETATM   22  H   LIG     1      92.595  89.008  92.740  1.00  0.00     0.217 HD
ENDBRANCH   3  21
TORSDOF 5
ENDMDL
MODEL 9
REMARK VINA RESULT:       0.0      6.289      8.707
REMARK  5 active torsions:
REMARK  status: ('A' for Active; 'I' for Inactive)
REMARK    1  A    between atoms: C_2  and  C_8 
REMARK    2  A    between atoms: C_3  and  O_21 
REMARK    3  A    between atoms: C_5  and  O_19 
REMARK    4  A    between atoms: C_9  and  O_15 
REMARK    5  A    between atoms: C_12  and  O_17 
ROOT
HETATM    1  C   LIG     1      93.164  88.249  84.278  1.00  0.00     0.026 A 
HETATM    2  C   LIG     1      92.125  88.500  85.200  1.00  0.00     0.026 A 
HETATM    3  C   LIG     1      94.354  87.611  84.676  1.00  0.00     0.086 A 
HETATM    4  C   LIG     1      94.524  87.210  86.019  1.00  0.00     0.002 A 
HETATM    5  C   LIG     1      92.303  88.094  86.546  1.00  0.00     0.089 A 
HETATM    6  C   LIG     1      93.493  87.455  86.948  1.00  0.00     0.022 A 
HETATM    7  C   LIG     1      95.798  86.519  86.468  1.00  0.00     0.033 C 
ENDROOT
BRANCH   2   8
HETATM    8  C   LIG     1      90.893  89.178  84.749  1.00  0.00     0.026 A 
HETATM    9  C   LIG     1      90.825  90.589  84.768  1.00  0.00     0.026 A 
HETATM   10  C   LIG     1      89.668  91.268  84.339  1.00  0.00     0.086 A 
HETATM   11  C   LIG     1      88.553  90.536  83.877  1.00  0.00     0.002 A 
HETATM   12  C   LIG     1      87.298  91.251  83.410  1.00  0.00     0.033 C 
HETATM   13  C   LIG     1      88.611  89.129  83.852  1.00  0.00     0.022 A 
HETATM   14  C   LIG     1      89.770  88.452  84.285  1.00  0.00     0.089 A 
BRANCH  10  15
HETATM   15  O   LIG     1      89.639  92.632  84.374  1.00  0.00    -0.359 OA
HETATM   16  H   LIG     1      89.849  93.030  83.543  1.00  0.00     0.217 HD
ENDBRANCH  10  15
BRANCH  14  17
HETATM   17  O   LIG     1      89.783  87.087  84.255  1.00  0.00    -0.359 OA
HETATM   18  H   LIG     1      89.310  86.724  83.522  1.00  0.00     0.217 HD
ENDBRANCH  14  17
ENDBRANCH   2   8
BRANCH   5  19
HETATM   19  O   LIG     1      91.323  88.306  87.475  1.00  0.00    -0.359 OA
HETATM   20  H   LIG     1      91.544  88.977  88.103  1.00  0.00     0.217 HD
ENDBRANCH   5  19
BRANCH   3  21
HETATM   21  O   LIG     1      95.334  87.388  83.751  1.00  0.00    -0.359 OA
HETATM   22  H   LIG     1      95.783  86.566  83.879  1.00  0.00     0.217 HD
ENDBRANCH   3  21
TORSDOF 5
ENDMDL
