MODEL 1
REMARK VINA RESULT:      -0.0      0.000      0.000
REMARK  2 active torsions:
REMARK  status: ('A' for Active; 'I' for Inactive)
REMARK    1  A    between atoms: C_8  and  O_27 
REMARK    2  A    between atoms: C_13  and  O_29 
ROOT
HETATM    1  C   LIG     1      88.752  89.565  86.623  1.00  0.00     0.214 C 
HETATM    2  C   LIG     1      88.441  89.464  88.118  1.00  0.00     0.040 C 
HETATM    3  C   LIG     1      86.471  88.867  86.940  1.00  0.00     0.191 C 
HETATM    4  C   LIG     1      85.871  89.403  90.148  1.00  0.00     0.024 A 
HETATM    5  C   LIG     1      85.569  87.761  86.374  1.00  0.00     0.035 C 
HETATM    6  C   LIG     1      87.301  88.440  88.184  1.00  0.00     0.068 C 
HETATM    7  C   LIG     1      86.667  88.412  89.558  1.00  0.00    -0.001 A 
HETATM    8  C   LIG     1      85.436  89.244  91.484  1.00  0.00     0.116 A 
HETATM    9  C   LIG     1      87.597  88.495  84.679  1.00  0.00     0.235 C 
HETATM   10  C   LIG     1      86.464  86.589  85.945  1.00  0.00     0.026 C 
HETATM   11  C   LIG     1      87.852  86.990  88.099  1.00  0.00     0.096 C 
HETATM   12  C   LIG     1      87.034  87.268  90.267  1.00  0.00     0.060 A 
HETATM   13  C   LIG     1      85.785  88.063  92.215  1.00  0.00     0.118 A 
HETATM   14  C   LIG     1      87.535  86.994  84.965  1.00  0.00    -0.016 C 
HETATM   15  C   LIG     1      87.092  86.002  87.202  1.00  0.00     0.053 C 
HETATM   16  C   LIG     1      86.601  87.075  91.592  1.00  0.00     0.043 A 
HETATM   17  C   LIG     1      88.114  84.872  87.039  1.00  0.00     0.127 C 
HETATM   18  C   LIG     1      88.094  85.088  89.652  1.00  0.00     0.240 C 
HETATM   19  C   LIG     1      88.369  84.560  84.681  1.00  0.00     0.168 C 
HETATM   20  C   LIG     1      88.218  84.143  88.409  1.00  0.00     0.118 C 
HETATM   21  O   LIG     1      88.265  84.611  90.772  1.00  0.00    -0.272 OA
HETATM   22  N   LIG     1      87.788  86.402  89.436  1.00  0.00    -0.301 N 
HETATM   23  O   LIG     1      87.745  84.107  85.899  1.00  0.00    -0.351 OA
HETATM   24  C   LIG     1      88.348  86.075  84.404  1.00  0.00    -0.001 C 
HETATM   25  N   LIG     1      87.470  89.327  85.921  1.00  0.00    -0.024 N 
HETATM   26  H   LIG     1      87.151  90.234  85.611  1.00  0.00     0.283 HD
ENDROOT
BRANCH   8  27
HETATM   27  O   LIG     1      84.664  90.283  91.964  1.00  0.00    -0.326 OA
HETATM   28  C   LIG     1      83.275  90.308  91.673  1.00  0.00     0.181 C 
ENDBRANCH   8  27
BRANCH  13  29
HETATM   29  O   LIG     1      85.295  87.898  93.495  1.00  0.00    -0.326 OA
HETATM   30  C   LIG     1      84.085  87.180  93.688  1.00  0.00     0.181 C 
ENDBRANCH  13  29
TORSDOF 2
ENDMDL
MODEL 2
REMARK VINA RESULT:      -0.0     10.529     12.825
REMARK  2 active torsions:
REMARK  status: ('A' for Active; 'I' for Inactive)
REMARK    1  A    between atoms: C_8  and  O_27 
REMARK    2  A    between atoms: C_13  and  O_29 
ROOT
HETATM    1  C   LIG     1      93.180  92.709  91.351  1.00  0.00     0.214 C 
HETATM    2  C   LIG     1      93.794  93.580  92.448  1.00  0.00     0.040 C 
HETATM    3  C   LIG     1      95.209  93.725  90.549  1.00  0.00     0.191 C 
HETATM    4  C   LIG     1      96.661  94.944  93.260  1.00  0.00     0.024 A 
HETATM    5  C   LIG     1      95.632  94.492  89.288  1.00  0.00     0.035 C 
HETATM    6  C   LIG     1      94.611  94.621  91.671  1.00  0.00     0.068 C 
HETATM    7  C   LIG     1      95.518  95.407  92.592  1.00  0.00    -0.001 A 
HETATM    8  C   LIG     1      97.339  95.799  94.158  1.00  0.00     0.116 A 
HETATM    9  C   LIG     1      93.528  92.783  88.875  1.00  0.00     0.235 C 
HETATM   10  C   LIG     1      94.388  95.181  88.708  1.00  0.00     0.026 C 
HETATM   11  C   LIG     1      93.696  95.760  91.141  1.00  0.00     0.096 C 
HETATM   12  C   LIG     1      95.042  96.702  92.798  1.00  0.00     0.060 A 
HETATM   13  C   LIG     1      96.874  97.140  94.359  1.00  0.00     0.118 A 
HETATM   14  C   LIG     1      93.261  94.220  88.426  1.00  0.00    -0.016 C 
HETATM   15  C   LIG     1      93.940  96.244  89.703  1.00  0.00     0.053 C 
HETATM   16  C   LIG     1      95.707  97.581  93.673  1.00  0.00     0.043 A 
HETATM   17  C   LIG     1      92.650  97.015  89.405  1.00  0.00     0.127 C 
HETATM   18  C   LIG     1      93.336  98.142  91.671  1.00  0.00     0.240 C 
HETATM   19  C   LIG     1      91.778  96.071  87.387  1.00  0.00     0.168 C 
HETATM   20  C   LIG     1      92.683  98.315  90.258  1.00  0.00     0.118 C 
HETATM   21  O   LIG     1      93.314  99.094  92.449  1.00  0.00    -0.272 OA
HETATM   22  N   LIG     1      93.915  96.942  91.972  1.00  0.00    -0.301 N 
HETATM   23  O   LIG     1      92.530  97.141  87.995  1.00  0.00    -0.351 OA
HETATM   24  C   LIG     1      92.128  94.634  87.822  1.00  0.00    -0.001 C 
HETATM   25  N   LIG     1      94.154  92.707  90.235  1.00  0.00    -0.024 N 
HETATM   26  H   LIG     1      94.617  91.810  90.274  1.00  0.00     0.283 HD
ENDROOT
BRANCH   8  27
HETATM   27  O   LIG     1      98.445  95.237  94.763  1.00  0.00    -0.326 OA
HETATM   28  C   LIG     1      99.684  95.227  94.071  1.00  0.00     0.181 C 
ENDBRANCH   8  27
BRANCH  13  29
HETATM   29  O   LIG     1      97.590  97.978  95.190  1.00  0.00    -0.326 OA
HETATM   30  C   LIG     1      98.581  98.829  94.631  1.00  0.00     0.181 C 
ENDBRANCH  13  29
TORSDOF 2
ENDMDL
MODEL 3
REMARK VINA RESULT:      -0.0      4.186      7.428
REMARK  2 active torsions:
REMARK  status: ('A' for Active; 'I' for Inactive)
REMARK    1  A    between atoms: C_8  and  O_27 
REMARK    2  A    between atoms: C_13  and  O_29 
ROOT
HETATM    1  C   LIG     1      84.445  89.325  94.983  1.00  0.00     0.214 C 
HETATM    2  C   LIG     1      85.246  90.211  94.027  1.00  0.00     0.040 C 
HETATM    3  C   LIG     1      86.781  89.248  95.558  1.00  0.00     0.191 C 
HETATM    4  C   LIG     1      88.146  91.724  93.842  1.00  0.00     0.024 A 
HETATM    5  C   LIG     1      87.803  88.144  95.867  1.00  0.00     0.035 C 
HETATM    6  C   LIG     1      86.650  89.591  94.047  1.00  0.00     0.068 C 
HETATM    7  C   LIG     1      87.659  90.496  93.374  1.00  0.00    -0.001 A 
HETATM    8  C   LIG     1      89.024  92.481  93.032  1.00  0.00     0.116 A 
HETATM    9  C   LIG     1      85.214  87.424  96.416  1.00  0.00     0.235 C 
HETATM   10  C   LIG     1      87.356  86.864  95.145  1.00  0.00     0.026 C 
HETATM   11  C   LIG     1      86.721  88.350  93.115  1.00  0.00     0.096 C 
HETATM   12  C   LIG     1      88.030  90.006  92.121  1.00  0.00     0.060 A 
HETATM   13  C   LIG     1      89.432  91.978  91.755  1.00  0.00     0.118 A 
HETATM   14  C   LIG     1      85.953  86.445  95.504  1.00  0.00    -0.016 C 
HETATM   15  C   LIG     1      87.465  87.116  93.646  1.00  0.00     0.053 C 
HETATM   16  C   LIG     1      88.916  90.730  91.301  1.00  0.00     0.043 A 
HETATM   17  C   LIG     1      86.980  86.019  92.693  1.00  0.00     0.127 C 
HETATM   18  C   LIG     1      87.777  87.810  90.952  1.00  0.00     0.240 C 
HETATM   19  C   LIG     1      86.104  84.283  94.088  1.00  0.00     0.168 C 
HETATM   20  C   LIG     1      87.632  86.292  91.307  1.00  0.00     0.118 C 
HETATM   21  O   LIG     1      88.190  88.116  89.835  1.00  0.00    -0.272 OA
HETATM   22  N   LIG     1      87.450  88.731  91.907  1.00  0.00    -0.301 N 
HETATM   23  O   LIG     1      87.221  84.762  93.311  1.00  0.00    -0.351 OA
HETATM   24  C   LIG     1      85.433  85.289  95.042  1.00  0.00    -0.001 C 
HETATM   25  N   LIG     1      85.405  88.854  96.008  1.00  0.00    -0.024 N 
HETATM   26  H   LIG     1      85.219  89.403  96.835  1.00  0.00     0.283 HD
ENDROOT
BRANCH   8  27
HETATM   27  O   LIG     1      89.435  93.675  93.591  1.00  0.00    -0.326 OA
HETATM   28  C   LIG     1      90.519  93.676  94.506  1.00  0.00     0.181 C 
ENDBRANCH   8  27
BRANCH  13  29
HETATM   29  O   LIG     1      90.341  92.702  91.010  1.00  0.00    -0.326 OA
HETATM   30  C   LIG     1      91.725  92.406  91.125  1.00  0.00     0.181 C 
ENDBRANCH  13  29
TORSDOF 2
ENDMDL
MODEL 4
REMARK VINA RESULT:       0.0      4.312      7.203
REMARK  2 active torsions:
REMARK  status: ('A' for Active; 'I' for Inactive)
REMARK    1  A    between atoms: C_8  and  O_27 
REMARK    2  A    between atoms: C_13  and  O_29 
ROOT
HETATM    1  C   LIG     1      92.548  90.717  88.260  1.00  0.00     0.214 C 
HETATM    2  C   LIG     1      91.745  91.884  87.681  1.00  0.00     0.040 C 
HETATM    3  C   LIG     1      91.181  89.945  86.436  1.00  0.00     0.191 C 
HETATM    4  C   LIG     1      90.127  92.708  84.955  1.00  0.00     0.024 A 
HETATM    5  C   LIG     1      90.215  88.775  86.202  1.00  0.00     0.035 C 
HETATM    6  C   LIG     1      90.518  91.207  87.058  1.00  0.00     0.068 C 
HETATM    7  C   LIG     1      89.739  92.172  86.191  1.00  0.00    -0.001 A 
HETATM    8  C   LIG     1      89.307  93.672  84.325  1.00  0.00     0.116 A 
HETATM    9  C   LIG     1      92.122  88.256  88.103  1.00  0.00     0.235 C 
HETATM   10  C   LIG     1      89.630  88.361  87.561  1.00  0.00     0.026 C 
HETATM   11  C   LIG     1      89.453  90.883  88.142  1.00  0.00     0.096 C 
HETATM   12  C   LIG     1      88.554  92.573  86.808  1.00  0.00     0.060 A 
HETATM   13  C   LIG     1      88.075  94.074  84.936  1.00  0.00     0.118 A 
HETATM   14  C   LIG     1      90.689  88.018  88.578  1.00  0.00    -0.016 C 
HETATM   15  C   LIG     1      88.767  89.511  88.064  1.00  0.00     0.053 C 
HETATM   16  C   LIG     1      87.710  93.518  86.195  1.00  0.00     0.043 A 
HETATM   17  C   LIG     1      88.142  89.389  89.458  1.00  0.00     0.127 C 
HETATM   18  C   LIG     1      87.223  91.742  88.755  1.00  0.00     0.240 C 
HETATM   19  C   LIG     1      88.936  87.316  90.349  1.00  0.00     0.168 C 
HETATM   20  C   LIG     1      86.964  90.403  89.525  1.00  0.00     0.118 C 
HETATM   21  O   LIG     1      86.387  92.639  88.839  1.00  0.00    -0.272 OA
HETATM   22  N   LIG     1      88.364  91.850  88.012  1.00  0.00    -0.301 N 
HETATM   23  O   LIG     1      87.859  88.017  89.694  1.00  0.00    -0.351 OA
HETATM   24  C   LIG     1      90.356  87.536  89.793  1.00  0.00    -0.001 C 
HETATM   25  N   LIG     1      92.283  89.558  87.377  1.00  0.00    -0.024 N 
HETATM   26  H   LIG     1      93.109  89.452  86.804  1.00  0.00     0.283 HD
ENDROOT
BRANCH   8  27
HETATM   27  O   LIG     1      89.789  94.135  83.116  1.00  0.00    -0.326 OA
HETATM   28  C   LIG     1      89.550  93.380  81.939  1.00  0.00     0.181 C 
ENDBRANCH   8  27
BRANCH  13  29
HETATM   29  O   LIG     1      87.259  94.967  84.272  1.00  0.00    -0.326 OA
HETATM   30  C   LIG     1      86.222  94.471  83.436  1.00  0.00     0.181 C 
ENDBRANCH  13  29
TORSDOF 2
ENDMDL
MODEL 5
REMARK VINA RESULT:       0.0      5.453      8.703
REMARK  2 active torsions:
REMARK  status: ('A' for Active; 'I' for Inactive)
REMARK    1  A    between atoms: C_8  and  O_27 
REMARK    2  A    between atoms: C_13  and  O_29 
ROOT
HETATM    1  C   LIG     1      92.146  93.730  92.168  1.00  0.00     0.214 C 
HETATM    2  C   LIG     1      91.698  92.485  91.399  1.00  0.00     0.040 C 
HETATM    3  C   LIG     1      91.022  92.210  93.657  1.00  0.00     0.191 C 
HETATM    4  C   LIG     1      90.797  89.384  91.953  1.00  0.00     0.024 A 
HETATM    5  C   LIG     1      89.914  92.322  94.714  1.00  0.00     0.035 C 
HETATM    6  C   LIG     1      90.503  91.968  92.211  1.00  0.00     0.068 C 
HETATM    7  C   LIG     1      90.093  90.582  91.764  1.00  0.00    -0.001 A 
HETATM    8  C   LIG     1      90.304  88.188  91.384  1.00  0.00     0.116 A 
HETATM    9  C   LIG     1      91.304  94.655  94.335  1.00  0.00     0.235 C 
HETATM   10  C   LIG     1      89.020  93.515  94.344  1.00  0.00     0.026 C 
HETATM   11  C   LIG     1      89.214  92.765  91.869  1.00  0.00     0.096 C 
HETATM   12  C   LIG     1      88.910  90.611  91.025  1.00  0.00     0.060 A 
HETATM   13  C   LIG     1      89.077  88.199  90.644  1.00  0.00     0.118 A 
HETATM   14  C   LIG     1      89.788  94.804  94.201  1.00  0.00    -0.016 C 
HETATM   15  C   LIG     1      88.309  93.175  93.041  1.00  0.00     0.053 C 
HETATM   16  C   LIG     1      88.387  89.432  90.461  1.00  0.00     0.043 A 
HETATM   17  C   LIG     1      87.425  94.249  92.399  1.00  0.00     0.127 C 
HETATM   18  C   LIG     1      87.109  92.308  90.665  1.00  0.00     0.240 C 
HETATM   19  C   LIG     1      87.637  96.184  93.789  1.00  0.00     0.168 C 
HETATM   20  C   LIG     1      86.466  93.525  91.410  1.00  0.00     0.118 C 
HETATM   21  O   LIG     1      86.455  91.741  89.792  1.00  0.00    -0.272 OA
HETATM   22  N   LIG     1      88.368  91.920  91.027  1.00  0.00    -0.301 N 
HETATM   23  O   LIG     1      86.852  95.026  93.441  1.00  0.00    -0.351 OA
HETATM   24  C   LIG     1      89.151  95.972  93.979  1.00  0.00    -0.001 C 
HETATM   25  N   LIG     1      91.838  93.467  93.592  1.00  0.00    -0.024 N 
HETATM   26  H   LIG     1      92.721  93.244  94.030  1.00  0.00     0.283 HD
ENDROOT
BRANCH   8  27
HETATM   27  O   LIG     1      91.080  87.073  91.629  1.00  0.00    -0.326 OA
HETATM   28  C   LIG     1      90.927  86.376  92.856  1.00  0.00     0.181 C 
ENDBRANCH   8  27
BRANCH  13  29
HETATM   29  O   LIG     1      88.580  87.009  90.153  1.00  0.00    -0.326 OA
HETATM   30  C   LIG     1      87.643  86.276  90.929  1.00  0.00     0.181 C 
ENDBRANCH  13  29
TORSDOF 2
ENDMDL
MODEL 6
REMARK VINA RESULT:       0.0      3.124      5.012
REMARK  2 active torsions:
REMARK  status: ('A' for Active; 'I' for Inactive)
REMARK    1  A    between atoms: C_8  and  O_27 
REMARK    2  A    between atoms: C_13  and  O_29 
ROOT
HETATM    1  C   LIG     1      91.945  88.123  84.688  1.00  0.00     0.214 C 
HETATM    2  C   LIG     1      90.990  87.799  85.838  1.00  0.00     0.040 C 
HETATM    3  C   LIG     1      90.807  90.123  85.395  1.00  0.00     0.191 C 
HETATM    4  C   LIG     1      89.383  89.302  88.266  1.00  0.00     0.024 A 
HETATM    5  C   LIG     1      90.057  91.267  84.699  1.00  0.00     0.035 C 
HETATM    6  C   LIG     1      89.919  88.894  85.741  1.00  0.00     0.068 C 
HETATM    7  C   LIG     1      89.033  88.906  86.967  1.00  0.00    -0.001 A 
HETATM    8  C   LIG     1      88.446  89.161  89.315  1.00  0.00     0.116 A 
HETATM    9  C   LIG     1      91.936  90.062  83.106  1.00  0.00     0.235 C 
HETATM   10  C   LIG     1      89.487  90.730  83.378  1.00  0.00     0.026 C 
HETATM   11  C   LIG     1      88.874  88.550  84.644  1.00  0.00     0.096 C 
HETATM   12  C   LIG     1      87.771  88.378  86.693  1.00  0.00     0.060 A 
HETATM   13  C   LIG     1      87.139  88.643  89.042  1.00  0.00     0.118 A 
HETATM   14  C   LIG     1      90.541  90.127  82.484  1.00  0.00    -0.016 C 
HETATM   15  C   LIG     1      88.425  89.692  83.719  1.00  0.00     0.053 C 
HETATM   16  C   LIG     1      86.813  88.242  87.714  1.00  0.00     0.043 A 
HETATM   17  C   LIG     1      87.767  88.927  82.567  1.00  0.00     0.127 C 
HETATM   18  C   LIG     1      86.508  87.852  84.600  1.00  0.00     0.240 C 
HETATM   19  C   LIG     1      88.848  89.692  80.575  1.00  0.00     0.168 C 
HETATM   20  C   LIG     1      86.437  88.330  83.111  1.00  0.00     0.118 C 
HETATM   21  O   LIG     1      85.533  87.277  85.079  1.00  0.00    -0.272 OA
HETATM   22  N   LIG     1      87.648  88.108  85.307  1.00  0.00    -0.301 N 
HETATM   23  O   LIG     1      87.702  89.795  81.444  1.00  0.00    -0.351 OA
HETATM   24  C   LIG     1      90.237  89.697  81.242  1.00  0.00    -0.001 C 
HETATM   25  N   LIG     1      91.914  89.596  84.531  1.00  0.00    -0.024 N 
HETATM   26  H   LIG     1      92.771  89.936  84.944  1.00  0.00     0.283 HD
ENDROOT
BRANCH   8  27
HETATM   27  O   LIG     1      88.900  89.576  90.551  1.00  0.00    -0.326 OA
HETATM   28  C   LIG     1      88.841  90.954  90.884  1.00  0.00     0.181 C 
ENDBRANCH   8  27
BRANCH  13  29
HETATM   29  O   LIG     1      86.218  88.575  90.068  1.00  0.00    -0.326 OA
HETATM   30  C   LIG     1      85.316  89.654  90.263  1.00  0.00     0.181 C 
ENDBRANCH  13  29
TORSDOF 2
ENDMDL
MODEL 7
REMARK VINA RESULT:       0.0      4.099      6.594
REMARK  2 active torsions:
REMARK  status: ('A' for Active; 'I' for Inactive)
REMARK    1  A    between atoms: C_8  and  O_27 
REMARK    2  A    between atoms: C_13  and  O_29 
ROOT
HETATM    1  C   LIG     1      88.520  83.341  87.937  1.00  0.00     0.214 C 
HETATM    2  C   LIG     1      88.947  84.805  87.812  1.00  0.00     0.040 C 
HETATM    3  C   LIG     1      89.034  83.851  85.642  1.00  0.00     0.191 C 
HETATM    4  C   LIG     1      90.564  86.781  85.760  1.00  0.00     0.024 A 
HETATM    5  C   LIG     1      88.355  83.623  84.284  1.00  0.00     0.035 C 
HETATM    6  C   LIG     1      88.603  85.161  86.360  1.00  0.00     0.068 C 
HETATM    7  C   LIG     1      89.208  86.490  85.963  1.00  0.00    -0.001 A 
HETATM    8  C   LIG     1      90.958  88.109  85.479  1.00  0.00     0.116 A 
HETATM    9  C   LIG     1      87.642  81.782  86.188  1.00  0.00     0.235 C 
HETATM   10  C   LIG     1      86.839  83.538  84.518  1.00  0.00     0.026 C 
HETATM   11  C   LIG     1      87.091  85.486  86.212  1.00  0.00     0.096 C 
HETATM   12  C   LIG     1      88.239  87.491  85.887  1.00  0.00     0.060 A 
HETATM   13  C   LIG     1      89.970  89.143  85.374  1.00  0.00     0.118 A 
HETATM   14  C   LIG     1      86.456  82.479  85.520  1.00  0.00    -0.016 C 
HETATM   15  C   LIG     1      86.365  84.907  84.988  1.00  0.00     0.053 C 
HETATM   16  C   LIG     1      88.600  88.819  85.592  1.00  0.00     0.043 A 
HETATM   17  C   LIG     1      84.894  85.064  85.388  1.00  0.00     0.127 C 
HETATM   18  C   LIG     1      85.740  87.510  85.807  1.00  0.00     0.240 C 
HETATM   19  C   LIG     1      83.924  82.888  85.171  1.00  0.00     0.168 C 
HETATM   20  C   LIG     1      84.565  86.584  85.345  1.00  0.00     0.118 C 
HETATM   21  O   LIG     1      85.533  88.719  85.900  1.00  0.00    -0.272 OA
HETATM   22  N   LIG     1      86.949  86.935  86.075  1.00  0.00    -0.301 N 
HETATM   23  O   LIG     1      84.123  84.188  84.578  1.00  0.00    -0.351 OA
HETATM   24  C   LIG     1      85.162  82.195  85.773  1.00  0.00    -0.001 C 
HETATM   25  N   LIG     1      88.721  82.739  86.598  1.00  0.00    -0.024 N 
HETATM   26  H   LIG     1      89.565  82.189  86.666  1.00  0.00     0.283 HD
ENDROOT
BRANCH   8  27
HETATM   27  O   LIG     1      92.317  88.281  85.304  1.00  0.00    -0.326 OA
HETATM   28  C   LIG     1      92.894  88.000  84.039  1.00  0.00     0.181 C 
ENDBRANCH   8  27
BRANCH  13  29
HETATM   29  O   LIG     1      90.370  90.419  85.034  1.00  0.00    -0.326 OA
HETATM   30  C   LIG     1      90.351  90.811  83.669  1.00  0.00     0.181 C 
ENDBRANCH  13  29
TORSDOF 2
ENDMDL
MODEL 8
REMARK VINA RESULT:       0.0      5.628      7.616
REMARK  2 active torsions:
REMARK  status: ('A' for Active; 'I' for Inactive)
REMARK    1  A    between atoms: C_8  and  O_27 
REMARK    2  A    between atoms: C_13  and  O_29 
ROOT
HETATM    1  C   LIG     1      95.175  89.007  91.324  1.00  0.00     0.214 C 
HETATM    2  C   LIG     1      94.474  90.356  91.492  1.00  0.00     0.040 C 
HETATM    3  C   LIG     1      93.572  89.323  89.557  1.00  0.00     0.191 C 
HETATM    4  C   LIG     1      92.740  92.518  89.745  1.00  0.00     0.024 A 
HETATM    5  C   LIG     1      92.453  88.484  88.922  1.00  0.00     0.035 C 
HETATM    6  C   LIG     1      93.124  90.154  90.792  1.00  0.00     0.068 C 
HETATM    7  C   LIG     1      92.397  91.469  90.610  1.00  0.00    -0.001 A 
HETATM    8  C   LIG     1      91.993  93.718  89.774  1.00  0.00     0.116 A 
HETATM    9  C   LIG     1      94.440  86.975  90.061  1.00  0.00     0.235 C 
HETATM   10  C   LIG     1      91.941  87.493  89.979  1.00  0.00     0.026 C 
HETATM   11  C   LIG     1      92.125  89.408  91.719  1.00  0.00     0.096 C 
HETATM   12  C   LIG     1      91.327  91.590  91.498  1.00  0.00     0.060 A 
HETATM   13  C   LIG     1      90.876  93.845  90.663  1.00  0.00     0.118 A 
HETATM   14  C   LIG     1      93.034  86.627  90.551  1.00  0.00    -0.016 C 
HETATM   15  C   LIG     1      91.272  88.300  91.084  1.00  0.00     0.053 C 
HETATM   16  C   LIG     1      90.556  92.766  91.536  1.00  0.00     0.043 A 
HETATM   17  C   LIG     1      90.760  87.548  92.317  1.00  0.00     0.127 C 
HETATM   18  C   LIG     1      90.078  89.996  92.964  1.00  0.00     0.240 C 
HETATM   19  C   LIG     1      91.368  85.259  91.984  1.00  0.00     0.168 C 
HETATM   20  C   LIG     1      89.725  88.471  93.022  1.00  0.00     0.118 C 
HETATM   21  O   LIG     1      89.368  90.787  93.582  1.00  0.00    -0.272 OA
HETATM   22  N   LIG     1      91.155  90.382  92.218  1.00  0.00    -0.301 N 
HETATM   23  O   LIG     1      90.333  86.259  91.899  1.00  0.00    -0.351 OA
HETATM   24  C   LIG     1      92.751  85.632  91.417  1.00  0.00    -0.001 C 
HETATM   25  N   LIG     1      94.696  88.453  90.036  1.00  0.00    -0.024 N 
HETATM   26  H   LIG     1      95.449  88.589  89.378  1.00  0.00     0.283 HD
ENDROOT
BRANCH   8  27
HETATM   27  O   LIG     1      92.422  94.683  88.885  1.00  0.00    -0.326 OA
HETATM   28  C   LIG     1      91.991  94.623  87.534  1.00  0.00     0.181 C 
ENDBRANCH   8  27
BRANCH  13  29
HETATM   29  O   LIG     1      90.121  95.000  90.628  1.00  0.00    -0.326 OA
HETATM   30  C   LIG     1      88.964  95.047  89.806  1.00  0.00     0.181 C 
ENDBRANCH  13  29
TORSDOF 2
ENDMDL
MODEL 9
REMARK VINA RESULT:       0.0      7.596      9.928
REMARK  2 active torsions:
REMARK  status: ('A' for Active; 'I' for Inactive)
REMARK    1  A    between atoms: C_8  and  O_27 
REMARK    2  A    between atoms: C_13  and  O_29 
ROOT
HETATM    1  C   LIG     1      91.914  90.392  94.496  1.00  0.00     0.214 C 
HETATM    2  C   LIG     1      92.053  91.073  93.133  1.00  0.00     0.040 C 
HETATM    3  C   LIG     1      94.241  90.586  93.911  1.00  0.00     0.191 C 
HETATM    4  C   LIG     1      94.284  92.665  91.338  1.00  0.00     0.024 A 
HETATM    5  C   LIG     1      95.455  89.646  93.898  1.00  0.00     0.035 C 
HETATM    6  C   LIG     1      93.398  90.557  92.604  1.00  0.00     0.068 C 
HETATM    7  C   LIG     1      93.843  91.335  91.385  1.00  0.00    -0.001 A 
HETATM    8  C   LIG     1      94.576  93.259  90.090  1.00  0.00     0.116 A 
HETATM    9  C   LIG     1      93.533  88.927  95.719  1.00  0.00     0.235 C 
HETATM   10  C   LIG     1      94.944  88.209  93.716  1.00  0.00     0.026 C 
HETATM   11  C   LIG     1      93.244  89.138  91.991  1.00  0.00     0.096 C 
HETATM   12  C   LIG     1      93.691  90.586  90.217  1.00  0.00     0.060 A 
HETATM   13  C   LIG     1      94.448  92.494  88.885  1.00  0.00     0.118 A 
HETATM   14  C   LIG     1      93.935  87.805  94.761  1.00  0.00    -0.016 C 
HETATM   15  C   LIG     1      94.333  88.107  92.324  1.00  0.00     0.053 C 
HETATM   16  C   LIG     1      93.991  91.147  88.961  1.00  0.00     0.043 A 
HETATM   17  C   LIG     1      93.657  86.791  91.927  1.00  0.00     0.127 C 
HETATM   18  C   LIG     1      93.298  88.167  89.723  1.00  0.00     0.240 C 
HETATM   19  C   LIG     1      93.783  85.384  93.857  1.00  0.00     0.168 C 
HETATM   20  C   LIG     1      93.571  86.769  90.373  1.00  0.00     0.118 C 
HETATM   21  O   LIG     1      93.116  88.225  88.509  1.00  0.00    -0.272 OA
HETATM   22  N   LIG     1      93.288  89.265  90.535  1.00  0.00    -0.301 N 
HETATM   23  O   LIG     1      94.345  85.731  92.575  1.00  0.00    -0.351 OA
HETATM   24  C   LIG     1      93.456  86.546  94.815  1.00  0.00    -0.001 C 
HETATM   25  N   LIG     1      93.292  90.230  95.016  1.00  0.00    -0.024 N 
HETATM   26  H   LIG     1      93.408  90.946  95.719  1.00  0.00     0.283 HD
ENDROOT
BRANCH   8  27
HETATM   27  O   LIG     1      94.995  94.572  90.163  1.00  0.00    -0.326 OA
HETATM   28  C   LIG     1      96.358  94.851  90.446  1.00  0.00     0.181 C 
ENDBRANCH   8  27
BRANCH  13  29
HETATM   29  O   LIG     1      94.801  93.074  87.683  1.00  0.00    -0.326 OA
HETATM   30  C   LIG     1      96.119  92.894  87.187  1.00  0.00     0.181 C 
ENDBRANCH  13  29
TORSDOF 2
ENDMDL
