MODEL 1
REMARK VINA RESULT:      -0.0      0.000      0.000
REMARK  9 active torsions:
REMARK  status: ('A' for Active; 'I' for Inactive)
REMARK    1  A    between atoms: C_2  and  C_7 
REMARK    2  A    between atoms: C_3  and  O_13 
REMARK    3  A    between atoms: C_4  and  C_15 
REMARK    4  A    between atoms: C_7  and  O_8 
REMARK    5  A    between atoms: C_7  and  C_10 
REMARK    6  A    between atoms: C_10  and  O_11 
REMARK    7  A    between atoms: C_15  and  O_16 
REMARK    8  A    between atoms: C_15  and  C_18 
REMARK    9  A    between atoms: C_18  and  O_19 
ROOT
HETATM    1  O   LIG     1      90.290  95.832  92.072  1.00  0.00    -0.325 OA
HETATM    2  C   LIG     1      91.035  96.224  90.925  1.00  0.00     0.176 C 
HETATM    3  C   LIG     1      90.482  95.477  89.690  1.00  0.00     0.170 C 
HETATM    4  C   LIG     1      90.411  93.950  89.952  1.00  0.00     0.176 C 
HETATM    5  O   LIG     1      89.721  93.773  91.190  1.00  0.00    -0.325 OA
HETATM    6  C   LIG     1      90.284  94.454  92.271  1.00  0.00     0.294 C 
ENDROOT
BRANCH   2   7
HETATM    7  C   LIG     1      91.016  97.768  90.820  1.00  0.00     0.170 C 
BRANCH   7   8
HETATM    8  O   LIG     1      91.988  98.216  89.896  1.00  0.00    -0.380 OA
HETATM    9  H   LIG     1      92.363  99.015  90.236  1.00  0.00     0.211 HD
ENDBRANCH   7   8
BRANCH   7  10
HETATM   10  C   LIG     1      89.640  98.321  90.412  1.00  0.00     0.169 C 
BRANCH  10  11
HETATM   11  O   LIG     1      88.719  98.162  91.472  1.00  0.00    -0.380 OA
HETATM   12  H   LIG     1      88.324  97.306  91.402  1.00  0.00     0.211 HD
ENDBRANCH  10  11
ENDBRANCH   7  10
ENDBRANCH   2   7
BRANCH   3  13
HETATM   13  O   LIG     1      91.256  95.778  88.544  1.00  0.00    -0.380 OA
HETATM   14  H   LIG     1      90.671  96.039  87.848  1.00  0.00     0.211 HD
ENDBRANCH   3  13
BRANCH   4  15
HETATM   15  C   LIG     1      91.759  93.172  89.943  1.00  0.00     0.170 C 
BRANCH  15  16
HETATM   16  O   LIG     1      92.335  93.258  88.653  1.00  0.00    -0.380 OA
HETATM   17  H   LIG     1      91.960  92.570  88.124  1.00  0.00     0.211 HD
ENDBRANCH  15  16
BRANCH  15  18
HETATM   18  C   LIG     1      91.583  91.665  90.217  1.00  0.00     0.169 C 
BRANCH  18  19
HETATM   19  O   LIG     1      90.273  91.261  89.873  1.00  0.00    -0.380 OA
HETATM   20  H   LIG     1      90.329  90.507  89.307  1.00  0.00     0.211 HD
ENDBRANCH  18  19
ENDBRANCH  15  18
ENDBRANCH   4  15
TORSDOF 9
ENDMDL
MODEL 2
REMARK VINA RESULT:      -0.0      5.891      7.607
REMARK  9 active torsions:
REMARK  status: ('A' for Active; 'I' for Inactive)
REMARK    1  A    between atoms: C_2  and  C_7 
REMARK    2  A    between atoms: C_3  and  O_13 
REMARK    3  A    between atoms: C_4  and  C_15 
REMARK    4  A    between atoms: C_7  and  O_8 
REMARK    5  A    between atoms: C_7  and  C_10 
REMARK    6  A    between atoms: C_10  and  O_11 
REMARK    7  A    between atoms: C_15  and  O_16 
REMARK    8  A    between atoms: C_15  and  C_18 
REMARK    9  A    between atoms: C_18  and  O_19 
ROOT
HETATM    1  O   LIG     1      91.263  89.794  94.898  1.00  0.00    -0.325 OA
HETATM    2  C   LIG     1      91.950  90.315  96.030  1.00  0.00     0.176 C 
HETATM    3  C   LIG     1      92.385  91.767  95.727  1.00  0.00     0.170 C 
HETATM    4  C   LIG     1      93.153  91.845  94.382  1.00  0.00     0.176 C 
HETATM    5  O   LIG     1      92.351  91.183  93.405  1.00  0.00    -0.325 OA
HETATM    6  C   LIG     1      92.011  89.868  93.727  1.00  0.00     0.294 C 
ENDROOT
BRANCH   2   7
HETATM    7  C   LIG     1      91.054  90.147  97.280  1.00  0.00     0.170 C 
BRANCH   7   8
HETATM    8  O   LIG     1      91.803  90.354  98.461  1.00  0.00    -0.380 OA
HETATM    9  H   LIG     1      91.372  89.889  99.162  1.00  0.00     0.211 HD
ENDBRANCH   7   8
BRANCH   7  10
HETATM   10  C   LIG     1      89.843  91.097  97.278  1.00  0.00     0.169 C 
BRANCH  10  11
HETATM   11  O   LIG     1      88.917  90.699  96.288  1.00  0.00    -0.380 OA
HETATM   12  H   LIG     1      89.185  91.067  95.460  1.00  0.00     0.211 HD
ENDBRANCH  10  11
ENDBRANCH   7  10
ENDBRANCH   2   7
BRANCH   3  13
HETATM   13  O   LIG     1      93.147  92.288  96.799  1.00  0.00    -0.380 OA
HETATM   14  H   LIG     1      93.614  91.575  97.209  1.00  0.00     0.211 HD
ENDBRANCH   3  13
BRANCH   4  15
HETATM   15  C   LIG     1      94.613  91.302  94.374  1.00  0.00     0.170 C 
BRANCH  15  16
HETATM   16  O   LIG     1      95.403  92.082  95.251  1.00  0.00    -0.380 OA
HETATM   17  H   LIG     1      95.238  91.781  96.132  1.00  0.00     0.211 HD
ENDBRANCH  15  16
BRANCH  15  18
HETATM   18  C   LIG     1      95.288  91.420  92.993  1.00  0.00     0.169 C 
BRANCH  18  19
HETATM   19  O   LIG     1      94.673  92.446  92.240  1.00  0.00    -0.380 OA
HETATM   20  H   LIG     1      94.769  93.262  92.708  1.00  0.00     0.211 HD
ENDBRANCH  18  19
ENDBRANCH  15  18
ENDBRANCH   4  15
TORSDOF 9
ENDMDL
MODEL 3
REMARK VINA RESULT:      -0.0     10.164     12.176
REMARK  9 active torsions:
REMARK  status: ('A' for Active; 'I' for Inactive)
REMARK    1  A    between atoms: C_2  and  C_7 
REMARK    2  A    between atoms: C_3  and  O_13 
REMARK    3  A    between atoms: C_4  and  C_15 
REMARK    4  A    between atoms: C_7  and  O_8 
REMARK    5  A    between atoms: C_7  and  C_10 
REMARK    6  A    between atoms: C_10  and  O_11 
REMARK    7  A    between atoms: C_15  and  O_16 
REMARK    8  A    between atoms: C_15  and  C_18 
REMARK    9  A    between atoms: C_18  and  O_19 
ROOT
HETATM    1  O   LIG     1      85.931  86.842  87.219  1.00  0.00    -0.325 OA
HETATM    2  C   LIG     1      84.666  86.465  86.689  1.00  0.00     0.176 C 
HETATM    3  C   LIG     1      84.888  85.625  85.411  1.00  0.00     0.170 C 
HETATM    4  C   LIG     1      85.837  86.356  84.426  1.00  0.00     0.176 C 
HETATM    5  O   LIG     1      86.994  86.739  85.169  1.00  0.00    -0.325 OA
HETATM    6  C   LIG     1      86.727  87.516  86.298  1.00  0.00     0.294 C 
ENDROOT
BRANCH   2   7
HETATM    7  C   LIG     1      83.846  85.766  87.799  1.00  0.00     0.170 C 
BRANCH   7   8
HETATM    8  O   LIG     1      82.487  85.658  87.422  1.00  0.00    -0.380 OA
HETATM    9  H   LIG     1      82.307  84.747  87.248  1.00  0.00     0.211 HD
ENDBRANCH   7   8
BRANCH   7  10
HETATM   10  C   LIG     1      84.385  84.367  88.146  1.00  0.00     0.169 C 
BRANCH  10  11
HETATM   11  O   LIG     1      85.620  84.478  88.824  1.00  0.00    -0.380 OA
HETATM   12  H   LIG     1      86.311  84.537  88.182  1.00  0.00     0.211 HD
ENDBRANCH  10  11
ENDBRANCH   7  10
ENDBRANCH   2   7
BRANCH   3  13
HETATM   13  O   LIG     1      83.649  85.306  84.808  1.00  0.00    -0.380 OA
HETATM   14  H   LIG     1      83.601  84.368  84.699  1.00  0.00     0.211 HD
ENDBRANCH   3  13
BRANCH   4  15
HETATM   15  C   LIG     1      85.243  87.566  83.646  1.00  0.00     0.170 C 
BRANCH  15  16
HETATM   16  O   LIG     1      84.192  87.111  82.814  1.00  0.00    -0.380 OA
HETATM   17  H   LIG     1      83.377  87.286  83.260  1.00  0.00     0.211 HD
ENDBRANCH  15  16
BRANCH  15  18
HETATM   18  C   LIG     1      86.264  88.227  82.697  1.00  0.00     0.169 C 
BRANCH  18  19
HETATM   19  O   LIG     1      87.271  87.298  82.349  1.00  0.00    -0.380 OA
HETATM   20  H   LIG     1      88.071  87.542  82.787  1.00  0.00     0.211 HD
ENDBRANCH  18  19
ENDBRANCH  15  18
ENDBRANCH   4  15
TORSDOF 9
ENDMDL
MODEL 4
REMARK VINA RESULT:      -0.0      4.319      6.150
REMARK  9 active torsions:
REMARK  status: ('A' for Active; 'I' for Inactive)
REMARK    1  A    between atoms: C_2  and  C_7 
REMARK    2  A    between atoms: C_3  and  O_13 
REMARK    3  A    between atoms: C_4  and  C_15 
REMARK    4  A    between atoms: C_7  and  O_8 
REMARK    5  A    between atoms: C_7  and  C_10 
REMARK    6  A    between atoms: C_10  and  O_11 
REMARK    7  A    between atoms: C_15  and  O_16 
REMARK    8  A    between atoms: C_15  and  C_18 
REMARK    9  A    between atoms: C_18  and  O_19 
ROOT
HETATM    1  O   LIG     1      87.645  91.378  92.822  1.00  0.00    -0.325 OA
HETATM    2  C   LIG     1      88.938  91.329  92.231  1.00  0.00     0.176 C 
HETATM    3  C   LIG     1      89.271  89.862  91.878  1.00  0.00     0.170 C 
HETATM    4  C   LIG     1      89.059  88.934  93.103  1.00  0.00     0.176 C 
HETATM    5  O   LIG     1      87.752  89.207  93.609  1.00  0.00    -0.325 OA
HETATM    6  C   LIG     1      87.522  90.546  93.930  1.00  0.00     0.294 C 
ENDROOT
BRANCH   2   7
HETATM    7  C   LIG     1      88.983  92.316  91.041  1.00  0.00     0.170 C 
BRANCH   7   8
HETATM    8  O   LIG     1      90.317  92.536  90.625  1.00  0.00    -0.380 OA
HETATM    9  H   LIG     1      90.332  93.331  90.114  1.00  0.00     0.211 HD
ENDBRANCH   7   8
BRANCH   7  10
HETATM   10  C   LIG     1      88.153  91.837  89.837  1.00  0.00     0.169 C 
BRANCH  10  11
HETATM   11  O   LIG     1      86.774  91.915  90.136  1.00  0.00    -0.380 OA
HETATM   12  H   LIG     1      86.670  92.371  90.958  1.00  0.00     0.211 HD
ENDBRANCH  10  11
ENDBRANCH   7  10
ENDBRANCH   2   7
BRANCH   3  13
HETATM   13  O   LIG     1      90.587  89.764  91.367  1.00  0.00    -0.380 OA
HETATM   14  H   LIG     1      91.015  89.029  91.780  1.00  0.00     0.211 HD
ENDBRANCH   3  13
BRANCH   4  15
HETATM   15  C   LIG     1      90.127  89.008  94.233  1.00  0.00     0.170 C 
BRANCH  15  16
HETATM   16  O   LIG     1      91.377  88.591  93.718  1.00  0.00    -0.380 OA
HETATM   17  H   LIG     1      91.556  87.728  94.061  1.00  0.00     0.211 HD
ENDBRANCH  15  16
BRANCH  15  18
HETATM   18  C   LIG     1      89.824  88.054  95.407  1.00  0.00     0.169 C 
BRANCH  18  19
HETATM   19  O   LIG     1      89.009  86.987  94.963  1.00  0.00    -0.380 OA
HETATM   20  H   LIG     1      88.134  87.118  95.296  1.00  0.00     0.211 HD
ENDBRANCH  18  19
ENDBRANCH  15  18
ENDBRANCH   4  15
TORSDOF 9
ENDMDL
MODEL 5
REMARK VINA RESULT:      -0.0      2.261      5.028
REMARK  9 active torsions:
REMARK  status: ('A' for Active; 'I' for Inactive)
REMARK    1  A    between atoms: C_2  and  C_7 
REMARK    2  A    between atoms: C_3  and  O_13 
REMARK    3  A    between atoms: C_4  and  C_15 
REMARK    4  A    between atoms: C_7  and  O_8 
REMARK    5  A    between atoms: C_7  and  C_10 
REMARK    6  A    between atoms: C_10  and  O_11 
REMARK    7  A    between atoms: C_15  and  O_16 
REMARK    8  A    between atoms: C_15  and  C_18 
REMARK    9  A    between atoms: C_18  and  O_19 
ROOT
HETATM    1  O   LIG     1      89.637  93.627  93.244  1.00  0.00    -0.325 OA
HETATM    2  C   LIG     1      90.394  94.186  92.176  1.00  0.00     0.176 C 
HETATM    3  C   LIG     1      90.672  95.674  92.485  1.00  0.00     0.170 C 
HETATM    4  C   LIG     1      89.359  96.421  92.838  1.00  0.00     0.176 C 
HETATM    5  O   LIG     1      88.702  95.653  93.846  1.00  0.00    -0.325 OA
HETATM    6  C   LIG     1      88.459  94.324  93.497  1.00  0.00     0.294 C 
ENDROOT
BRANCH   2   7
HETATM    7  C   LIG     1      91.654  93.317  91.948  1.00  0.00     0.170 C 
BRANCH   7   8
HETATM    8  O   LIG     1      92.264  93.639  90.714  1.00  0.00    -0.380 OA
HETATM    9  H   LIG     1      92.417  94.572  90.702  1.00  0.00     0.211 HD
ENDBRANCH   7   8
BRANCH   7  10
HETATM   10  C   LIG     1      92.690  93.462  93.076  1.00  0.00     0.169 C 
BRANCH  10  11
HETATM   11  O   LIG     1      92.213  92.848  94.255  1.00  0.00    -0.380 OA
HETATM   12  H   LIG     1      92.936  92.742  94.854  1.00  0.00     0.211 HD
ENDBRANCH  10  11
ENDBRANCH   7  10
ENDBRANCH   2   7
BRANCH   3  13
HETATM   13  O   LIG     1      91.349  96.285  91.403  1.00  0.00    -0.380 OA
HETATM   14  H   LIG     1      91.929  95.647  91.014  1.00  0.00     0.211 HD
ENDBRANCH   3  13
BRANCH   4  15
HETATM   15  C   LIG     1      88.395  96.744  91.658  1.00  0.00     0.170 C 
BRANCH  15  16
HETATM   16  O   LIG     1      89.043  97.623  90.758  1.00  0.00    -0.380 OA
HETATM   17  H   LIG     1      88.493  97.706  89.993  1.00  0.00     0.211 HD
ENDBRANCH  15  16
BRANCH  15  18
HETATM   18  C   LIG     1      87.119  97.482  92.112  1.00  0.00     0.169 C 
BRANCH  18  19
HETATM   19  O   LIG     1      87.361  98.159  93.330  1.00  0.00    -0.380 OA
HETATM   20  H   LIG     1      87.798  98.975  93.139  1.00  0.00     0.211 HD
ENDBRANCH  18  19
ENDBRANCH  15  18
ENDBRANCH   4  15
TORSDOF 9
ENDMDL
MODEL 6
REMARK VINA RESULT:      -0.0      7.956     10.423
REMARK  9 active torsions:
REMARK  status: ('A' for Active; 'I' for Inactive)
REMARK    1  A    between atoms: C_2  and  C_7 
REMARK    2  A    between atoms: C_3  and  O_13 
REMARK    3  A    between atoms: C_4  and  C_15 
REMARK    4  A    between atoms: C_7  and  O_8 
REMARK    5  A    between atoms: C_7  and  C_10 
REMARK    6  A    between atoms: C_10  and  O_11 
REMARK    7  A    between atoms: C_15  and  O_16 
REMARK    8  A    between atoms: C_15  and  C_18 
REMARK    9  A    between atoms: C_18  and  O_19 
ROOT
HETATM    1  O   LIG     1      92.917  89.369  83.352  1.00  0.00    -0.325 OA
HETATM    2  C   LIG     1      91.546  88.989  83.314  1.00  0.00     0.176 C 
HETATM    3  C   LIG     1      91.370  87.672  84.102  1.00  0.00     0.170 C 
HETATM    4  C   LIG     1      92.377  86.597  83.617  1.00  0.00     0.176 C 
HETATM    5  O   LIG     1      93.670  87.202  83.631  1.00  0.00    -0.325 OA
HETATM    6  C   LIG     1      93.769  88.376  82.881  1.00  0.00     0.294 C 
ENDROOT
BRANCH   2   7
HETATM    7  C   LIG     1      90.684  90.173  83.814  1.00  0.00     0.170 C 
BRANCH   7   8
HETATM    8  O   LIG     1      89.321  89.964  83.500  1.00  0.00    -0.380 OA
HETATM    9  H   LIG     1      88.975  90.775  83.161  1.00  0.00     0.211 HD
ENDBRANCH   7   8
BRANCH   7  10
HETATM   10  C   LIG     1      90.822  90.413  85.327  1.00  0.00     0.169 C 
BRANCH  10  11
HETATM   11  O   LIG     1      92.103  90.932  85.620  1.00  0.00    -0.380 OA
HETATM   12  H   LIG     1      92.747  90.264  85.441  1.00  0.00     0.211 HD
ENDBRANCH  10  11
ENDBRANCH   7  10
ENDBRANCH   2   7
BRANCH   3  13
HETATM   13  O   LIG     1      90.032  87.218  84.012  1.00  0.00    -0.380 OA
HETATM   14  H   LIG     1      89.588  87.434  84.818  1.00  0.00     0.211 HD
ENDBRANCH   3  13
BRANCH   4  15
HETATM   15  C   LIG     1      92.083  85.928  82.242  1.00  0.00     0.170 C 
BRANCH  15  16
HETATM   16  O   LIG     1      90.859  85.221  82.322  1.00  0.00    -0.380 OA
HETATM   17  H   LIG     1      90.972  84.399  81.869  1.00  0.00     0.211 HD
ENDBRANCH  15  16
BRANCH  15  18
HETATM   18  C   LIG     1      93.142  84.878  81.848  1.00  0.00     0.169 C 
BRANCH  18  19
HETATM   19  O   LIG     1      93.786  84.385  83.005  1.00  0.00    -0.380 OA
HETATM   20  H   LIG     1      93.202  83.783  83.441  1.00  0.00     0.211 HD
ENDBRANCH  18  19
ENDBRANCH  15  18
ENDBRANCH   4  15
TORSDOF 9
ENDMDL
MODEL 7
REMARK VINA RESULT:      -0.0      9.925     11.350
REMARK  9 active torsions:
REMARK  status: ('A' for Active; 'I' for Inactive)
REMARK    1  A    between atoms: C_2  and  C_7 
REMARK    2  A    between atoms: C_3  and  O_13 
REMARK    3  A    between atoms: C_4  and  C_15 
REMARK    4  A    between atoms: C_7  and  O_8 
REMARK    5  A    between atoms: C_7  and  C_10 
REMARK    6  A    between atoms: C_10  and  O_11 
REMARK    7  A    between atoms: C_15  and  O_16 
REMARK    8  A    between atoms: C_15  and  C_18 
REMARK    9  A    between atoms: C_18  and  O_19 
ROOT
HETATM    1  O   LIG     1      86.276  86.376  97.764  1.00  0.00    -0.325 OA
HETATM    2  C   LIG     1      86.965  87.526  97.287  1.00  0.00     0.176 C 
HETATM    3  C   LIG     1      88.112  87.072  96.355  1.00  0.00     0.170 C 
HETATM    4  C   LIG     1      88.995  86.000  97.046  1.00  0.00     0.176 C 
HETATM    5  O   LIG     1      88.115  84.992  97.543  1.00  0.00    -0.325 OA
HETATM    6  C   LIG     1      87.116  85.464  98.397  1.00  0.00     0.294 C 
ENDROOT
BRANCH   2   7
HETATM    7  C   LIG     1      85.942  88.491  96.643  1.00  0.00     0.170 C 
BRANCH   7   8
HETATM    8  O   LIG     1      86.518  89.767  96.442  1.00  0.00    -0.380 OA
HETATM    9  H   LIG     1      85.862  90.416  96.648  1.00  0.00     0.211 HD
ENDBRANCH   7   8
BRANCH   7  10
HETATM   10  C   LIG     1      85.391  87.971  95.304  1.00  0.00     0.169 C 
BRANCH  10  11
HETATM   11  O   LIG     1      84.541  86.864  95.527  1.00  0.00    -0.380 OA
HETATM   12  H   LIG     1      84.680  86.550  96.407  1.00  0.00     0.211 HD
ENDBRANCH  10  11
ENDBRANCH   7  10
ENDBRANCH   2   7
BRANCH   3  13
HETATM   13  O   LIG     1      88.873  88.186  95.930  1.00  0.00    -0.380 OA
HETATM   14  H   LIG     1      88.813  88.860  96.590  1.00  0.00     0.211 HD
ENDBRANCH   3  13
BRANCH   4  15
HETATM   15  C   LIG     1      89.964  86.499  98.159  1.00  0.00     0.170 C 
BRANCH  15  16
HETATM   16  O   LIG     1      90.907  87.387  97.588  1.00  0.00    -0.380 OA
HETATM   17  H   LIG     1      90.617  87.590  96.711  1.00  0.00     0.211 HD
ENDBRANCH  15  16
BRANCH  15  18
HETATM   18  C   LIG     1      90.794  85.360  98.786  1.00  0.00     0.169 C 
BRANCH  18  19
HETATM   19  O   LIG     1      90.894  84.281  97.879  1.00  0.00    -0.380 OA
HETATM   20  H   LIG     1      91.725  84.339  97.432  1.00  0.00     0.211 HD
ENDBRANCH  18  19
ENDBRANCH  15  18
ENDBRANCH   4  15
TORSDOF 9
ENDMDL
MODEL 8
REMARK VINA RESULT:      -0.0      8.523     10.836
REMARK  9 active torsions:
REMARK  status: ('A' for Active; 'I' for Inactive)
REMARK    1  A    between atoms: C_2  and  C_7 
REMARK    2  A    between atoms: C_3  and  O_13 
REMARK    3  A    between atoms: C_4  and  C_15 
REMARK    4  A    between atoms: C_7  and  O_8 
REMARK    5  A    between atoms: C_7  and  C_10 
REMARK    6  A    between atoms: C_10  and  O_11 
REMARK    7  A    between atoms: C_15  and  O_16 
REMARK    8  A    between atoms: C_15  and  C_18 
REMARK    9  A    between atoms: C_18  and  O_19 
ROOT
HETATM    1  O   LIG     1      86.478  87.745  97.018  1.00  0.00    -0.325 OA
HETATM    2  C   LIG     1      85.415  88.630  97.355  1.00  0.00     0.176 C 
HETATM    3  C   LIG     1      85.601  89.953  96.579  1.00  0.00     0.170 C 
HETATM    4  C   LIG     1      87.032  90.517  96.779  1.00  0.00     0.176 C 
HETATM    5  O   LIG     1      87.941  89.455  96.492  1.00  0.00    -0.325 OA
HETATM    6  C   LIG     1      87.735  88.296  97.243  1.00  0.00     0.294 C 
ENDROOT
BRANCH   2   7
HETATM    7  C   LIG     1      84.068  87.910  97.111  1.00  0.00     0.170 C 
BRANCH   7   8
HETATM    8  O   LIG     1      83.007  88.619  97.720  1.00  0.00    -0.380 OA
HETATM    9  H   LIG     1      83.385  89.267  98.296  1.00  0.00     0.211 HD
ENDBRANCH   7   8
BRANCH   7  10
HETATM   10  C   LIG     1      83.755  87.720  95.617  1.00  0.00     0.169 C 
BRANCH  10  11
HETATM   11  O   LIG     1      84.622  86.754  95.058  1.00  0.00    -0.380 OA
HETATM   12  H   LIG     1      85.254  87.197  94.513  1.00  0.00     0.211 HD
ENDBRANCH  10  11
ENDBRANCH   7  10
ENDBRANCH   2   7
BRANCH   3  13
HETATM   13  O   LIG     1      84.609  90.889  96.956  1.00  0.00    -0.380 OA
HETATM   14  H   LIG     1      84.032  91.027  96.219  1.00  0.00     0.211 HD
ENDBRANCH   3  13
BRANCH   4  15
HETATM   15  C   LIG     1      87.343  91.168  98.158  1.00  0.00     0.170 C 
BRANCH  15  16
HETATM   16  O   LIG     1      86.515  92.302  98.334  1.00  0.00    -0.380 OA
HETATM   17  H   LIG     1      86.780  92.953  97.701  1.00  0.00     0.211 HD
ENDBRANCH  15  16
BRANCH  15  18
HETATM   18  C   LIG     1      88.790  91.693  98.260  1.00  0.00     0.169 C 
BRANCH  18  19
HETATM   19  O   LIG     1      89.298  91.960  96.968  1.00  0.00    -0.380 OA
HETATM   20  H   LIG     1      88.602  91.843  96.340  1.00  0.00     0.211 HD
ENDBRANCH  18  19
ENDBRANCH  15  18
ENDBRANCH   4  15
TORSDOF 9
ENDMDL
MODEL 9
REMARK VINA RESULT:      -0.0      3.545      5.961
REMARK  9 active torsions:
REMARK  status: ('A' for Active; 'I' for Inactive)
REMARK    1  A    between atoms: C_2  and  C_7 
REMARK    2  A    between atoms: C_3  and  O_13 
REMARK    3  A    between atoms: C_4  and  C_15 
REMARK    4  A    between atoms: C_7  and  O_8 
REMARK    5  A    between atoms: C_7  and  C_10 
REMARK    6  A    between atoms: C_10  and  O_11 
REMARK    7  A    between atoms: C_15  and  O_16 
REMARK    8  A    between atoms: C_15  and  C_18 
REMARK    9  A    between atoms: C_18  and  O_19 
ROOT
HETATM    1  O   LIG     1      86.591  94.612  92.287  1.00  0.00    -0.325 OA
HETATM    2  C   LIG     1      87.955  94.956  92.496  1.00  0.00     0.176 C 
HETATM    3  C   LIG     1      88.025  96.365  93.126  1.00  0.00     0.170 C 
HETATM    4  C   LIG     1      87.197  97.383  92.300  1.00  0.00     0.176 C 
HETATM    5  O   LIG     1      85.902  96.811  92.113  1.00  0.00    -0.325 OA
HETATM    6  C   LIG     1      85.906  95.548  91.518  1.00  0.00     0.294 C 
ENDROOT
BRANCH   2   7
HETATM    7  C   LIG     1      88.633  93.835  93.320  1.00  0.00     0.170 C 
BRANCH   7   8
HETATM    8  O   LIG     1      90.040  93.972  93.284  1.00  0.00    -0.380 OA
HETATM    9  H   LIG     1      90.403  93.403  93.946  1.00  0.00     0.211 HD
ENDBRANCH   7   8
BRANCH   7  10
HETATM   10  C   LIG     1      88.167  93.807  94.786  1.00  0.00     0.169 C 
BRANCH  10  11
HETATM   11  O   LIG     1      86.831  93.353  94.862  1.00  0.00    -0.380 OA
HETATM   12  H   LIG     1      86.313  94.013  95.297  1.00  0.00     0.211 HD
ENDBRANCH  10  11
ENDBRANCH   7  10
ENDBRANCH   2   7
BRANCH   3  13
HETATM   13  O   LIG     1      89.372  96.776  93.269  1.00  0.00    -0.380 OA
HETATM   14  H   LIG     1      89.448  97.666  92.960  1.00  0.00     0.211 HD
ENDBRANCH   3  13
BRANCH   4  15
HETATM   15  C   LIG     1      87.807  97.851  90.946  1.00  0.00     0.170 C 
BRANCH  15  16
HETATM   16  O   LIG     1      89.019  98.538  91.196  1.00  0.00    -0.380 OA
HETATM   17  H   LIG     1      89.499  98.047  91.846  1.00  0.00     0.211 HD
ENDBRANCH  15  16
BRANCH  15  18
HETATM   18  C   LIG     1      86.908  98.856  90.199  1.00  0.00     0.169 C 
BRANCH  18  19
HETATM   19  O   LIG     1      86.059  99.518  91.116  1.00  0.00    -0.380 OA
HETATM   20  H   LIG     1      85.163  99.393  90.841  1.00  0.00     0.211 HD
ENDBRANCH  18  19
ENDBRANCH  15  18
ENDBRANCH   4  15
TORSDOF 9
ENDMDL
