MODEL 1
REMARK VINA RESULT:      -0.0      0.000      0.000
REMARK  6 active torsions:
REMARK  status: ('A' for Active; 'I' for Inactive)
REMARK    1  A    between atoms: C_1  and  C_11 
REMARK    2  A    between atoms: C_1  and  C_20 
REMARK    3  A    between atoms: C_1  and  C_2 
REMARK    4  A    between atoms: C_5  and  N_8 
REMARK    5  A    between atoms: C_14  and  N_17 
REMARK    6  A    between atoms: C_23  and  N_26 
ROOT
HETATM    1  C   LIG     1      84.492  92.604  94.212  1.00  0.00     0.067 C 
ENDROOT
BRANCH   1   2
HETATM    2  C   LIG     1      84.994  93.547  93.119  1.00  0.00    -0.014 A 
HETATM    3  C   LIG     1      84.068  94.318  92.389  1.00  0.00    -0.002 A 
HETATM    4  C   LIG     1      84.504  95.192  91.374  1.00  0.00     0.017 A 
HETATM    5  C   LIG     1      85.879  95.318  91.057  1.00  0.00     0.056 A 
HETATM    6  C   LIG     1      86.802  94.535  91.796  1.00  0.00     0.017 A 
HETATM    7  C   LIG     1      86.367  93.663  92.812  1.00  0.00    -0.002 A 
BRANCH   5   8
HETATM    8  N   LIG     1      86.317  96.196  90.037  1.00  0.00    -0.344 N 
HETATM    9  C   LIG     1      87.738  96.316  89.731  1.00  0.00     0.126 C 
HETATM   10  C   LIG     1      85.352  96.987  89.282  1.00  0.00     0.126 C 
ENDBRANCH   5   8
ENDBRANCH   1   2
BRANCH   1  11
HETATM   11  C   LIG     1      85.350  91.350  94.380  1.00  0.00    -0.014 A 
HETATM   12  C   LIG     1      86.302  91.236  95.416  1.00  0.00    -0.002 A 
HETATM   13  C   LIG     1      87.076  90.068  95.551  1.00  0.00     0.017 A 
HETATM   14  C   LIG     1      86.920  88.977  94.658  1.00  0.00     0.056 A 
HETATM   15  C   LIG     1      85.959  89.103  93.625  1.00  0.00     0.017 A 
HETATM   16  C   LIG     1      85.186  90.271  93.489  1.00  0.00    -0.002 A 
BRANCH  14  17
HETATM   17  N   LIG     1      87.698  87.803  94.795  1.00  0.00    -0.344 N 
HETATM   18  C   LIG     1      87.520  86.690  93.870  1.00  0.00     0.126 C 
HETATM   19  C   LIG     1      88.688  87.697  95.861  1.00  0.00     0.126 C 
ENDBRANCH  14  17
ENDBRANCH   1  11
BRANCH   1  20
HETATM   20  C   LIG     1      84.175  93.309  95.530  1.00  0.00    -0.014 A 
HETATM   21  C   LIG     1      83.141  92.811  96.351  1.00  0.00    -0.002 A 
HETATM   22  C   LIG     1      82.824  93.444  97.568  1.00  0.00     0.023 A 
HETATM   23  C   LIG     1      83.536  94.591  97.990  1.00  0.00     0.127 A 
HETATM   24  C   LIG     1      84.570  95.089  97.164  1.00  0.00     0.023 A 
HETATM   25  C   LIG     1      84.886  94.456  95.948  1.00  0.00    -0.002 A 
BRANCH  23  26
HETATM   26  N   LIG     1      83.204  95.256  99.266  1.00  0.00    -0.114 N 
HETATM   27  O   LIG     1      83.811  96.280  99.563  1.00  0.00    -0.532 OA
HETATM   28  O   LIG     1      82.335  94.756  99.972  1.00  0.00    -0.532 OA
ENDBRANCH  23  26
ENDBRANCH   1  20
TORSDOF 6
ENDMDL
MODEL 2
REMARK VINA RESULT:      -0.0      4.950      7.529
REMARK  6 active torsions:
REMARK  status: ('A' for Active; 'I' for Inactive)
REMARK    1  A    between atoms: C_1  and  C_11 
REMARK    2  A    between atoms: C_1  and  C_20 
REMARK    3  A    between atoms: C_1  and  C_2 
REMARK    4  A    between atoms: C_5  and  N_8 
REMARK    5  A    between atoms: C_14  and  N_17 
REMARK    6  A    between atoms: C_23  and  N_26 
ROOT
HETATM    1  C   LIG     1      87.785  92.831  92.589  1.00  0.00     0.067 C 
ENDROOT
BRANCH   1   2
HETATM    2  C   LIG     1      86.550  92.268  91.886  1.00  0.00    -0.014 A 
HETATM    3  C   LIG     1      86.488  92.277  90.478  1.00  0.00    -0.002 A 
HETATM    4  C   LIG     1      85.360  91.768  89.806  1.00  0.00     0.017 A 
HETATM    5  C   LIG     1      84.258  91.238  90.522  1.00  0.00     0.056 A 
HETATM    6  C   LIG     1      84.330  91.237  91.938  1.00  0.00     0.017 A 
HETATM    7  C   LIG     1      85.458  91.744  92.611  1.00  0.00    -0.002 A 
BRANCH   5   8
HETATM    8  N   LIG     1      83.124  90.727  89.847  1.00  0.00    -0.344 N 
HETATM    9  C   LIG     1      83.074  90.730  88.389  1.00  0.00     0.126 C 
HETATM   10  C   LIG     1      81.997  90.192  90.603  1.00  0.00     0.126 C 
ENDBRANCH   5   8
ENDBRANCH   1   2
BRANCH   1  11
HETATM   11  C   LIG     1      87.481  93.466  93.946  1.00  0.00    -0.014 A 
HETATM   12  C   LIG     1      87.721  92.780  95.156  1.00  0.00    -0.002 A 
HETATM   13  C   LIG     1      87.437  93.390  96.393  1.00  0.00     0.017 A 
HETATM   14  C   LIG     1      86.908  94.703  96.458  1.00  0.00     0.056 A 
HETATM   15  C   LIG     1      86.674  95.382  95.236  1.00  0.00     0.017 A 
HETATM   16  C   LIG     1      86.957  94.773  94.000  1.00  0.00    -0.002 A 
BRANCH  14  17
HETATM   17  N   LIG     1      86.622  95.316  97.702  1.00  0.00    -0.344 N 
HETATM   18  C   LIG     1      86.452  94.504  98.901  1.00  0.00     0.126 C 
HETATM   19  C   LIG     1      86.500  96.766  97.796  1.00  0.00     0.126 C 
ENDBRANCH  14  17
ENDBRANCH   1  11
BRANCH   1  20
HETATM   20  C   LIG     1      88.967  91.863  92.618  1.00  0.00    -0.014 A 
HETATM   21  C   LIG     1      90.281  92.374  92.582  1.00  0.00    -0.002 A 
HETATM   22  C   LIG     1      91.389  91.504  92.602  1.00  0.00     0.023 A 
HETATM   23  C   LIG     1      91.204  90.103  92.657  1.00  0.00     0.127 A 
HETATM   24  C   LIG     1      89.885  89.595  92.690  1.00  0.00     0.023 A 
HETATM   25  C   LIG     1      88.778  90.463  92.670  1.00  0.00    -0.002 A 
BRANCH  23  26
HETATM   26  N   LIG     1      92.364  89.191  92.678  1.00  0.00    -0.114 N 
HETATM   27  O   LIG     1      93.489  89.681  92.702  1.00  0.00    -0.532 OA
HETATM   28  O   LIG     1      92.153  87.983  92.670  1.00  0.00    -0.532 OA
ENDBRANCH  23  26
ENDBRANCH   1  20
TORSDOF 6
ENDMDL
MODEL 3
REMARK VINA RESULT:      -0.0     10.984     13.857
REMARK  6 active torsions:
REMARK  status: ('A' for Active; 'I' for Inactive)
REMARK    1  A    between atoms: C_1  and  C_11 
REMARK    2  A    between atoms: C_1  and  C_20 
REMARK    3  A    between atoms: C_1  and  C_2 
REMARK    4  A    between atoms: C_5  and  N_8 
REMARK    5  A    between atoms: C_14  and  N_17 
REMARK    6  A    between atoms: C_23  and  N_26 
ROOT
HETATM    1  C   LIG     1      91.808  86.149  87.381  1.00  0.00     0.067 C 
ENDROOT
BRANCH   1   2
HETATM    2  C   LIG     1      92.421  87.533  87.171  1.00  0.00    -0.014 A 
HETATM    3  C   LIG     1      93.642  87.853  87.797  1.00  0.00    -0.002 A 
HETATM    4  C   LIG     1      94.226  89.122  87.624  1.00  0.00     0.017 A 
HETATM    5  C   LIG     1      93.606  90.111  86.821  1.00  0.00     0.056 A 
HETATM    6  C   LIG     1      92.377  89.778  86.197  1.00  0.00     0.017 A 
HETATM    7  C   LIG     1      91.792  88.509  86.369  1.00  0.00    -0.002 A 
BRANCH   5   8
HETATM    8  N   LIG     1      94.194  91.387  86.646  1.00  0.00    -0.344 N 
HETATM    9  C   LIG     1      93.542  92.386  85.808  1.00  0.00     0.126 C 
HETATM   10  C   LIG     1      95.454  91.712  87.304  1.00  0.00     0.126 C 
ENDBRANCH   5   8
ENDBRANCH   1   2
BRANCH   1  11
HETATM   11  C   LIG     1      90.279  86.146  87.353  1.00  0.00    -0.014 A 
HETATM   12  C   LIG     1      89.560  85.742  86.207  1.00  0.00    -0.002 A 
HETATM   13  C   LIG     1      88.152  85.744  86.210  1.00  0.00     0.017 A 
HETATM   14  C   LIG     1      87.421  86.146  87.356  1.00  0.00     0.056 A 
HETATM   15  C   LIG     1      88.155  86.547  88.500  1.00  0.00     0.017 A 
HETATM   16  C   LIG     1      89.562  86.546  88.498  1.00  0.00    -0.002 A 
BRANCH  14  17
HETATM   17  N   LIG     1      86.005  86.148  87.358  1.00  0.00    -0.344 N 
HETATM   18  C   LIG     1      85.267  85.739  86.168  1.00  0.00     0.126 C 
HETATM   19  C   LIG     1      85.272  86.556  88.551  1.00  0.00     0.126 C 
ENDBRANCH  14  17
ENDBRANCH   1  11
BRANCH   1  20
HETATM   20  C   LIG     1      92.437  85.062  86.510  1.00  0.00    -0.014 A 
HETATM   21  C   LIG     1      92.512  83.741  86.998  1.00  0.00    -0.002 A 
HETATM   22  C   LIG     1      93.092  82.721  86.219  1.00  0.00     0.023 A 
HETATM   23  C   LIG     1      93.610  83.002  84.934  1.00  0.00     0.127 A 
HETATM   24  C   LIG     1      93.537  84.328  84.449  1.00  0.00     0.023 A 
HETATM   25  C   LIG     1      92.957  85.347  85.227  1.00  0.00    -0.002 A 
BRANCH  23  26
HETATM   26  N   LIG     1      94.219  81.934  84.117  1.00  0.00    -0.114 N 
HETATM   27  O   LIG     1      94.707  82.237  83.033  1.00  0.00    -0.532 OA
HETATM   28  O   LIG     1      94.211  80.789  84.558  1.00  0.00    -0.532 OA
ENDBRANCH  23  26
ENDBRANCH   1  20
TORSDOF 6
ENDMDL
MODEL 4
REMARK VINA RESULT:      -0.0      8.148     11.195
REMARK  6 active torsions:
REMARK  status: ('A' for Active; 'I' for Inactive)
REMARK    1  A    between atoms: C_1  and  C_11 
REMARK    2  A    between atoms: C_1  and  C_20 
REMARK    3  A    between atoms: C_1  and  C_2 
REMARK    4  A    between atoms: C_5  and  N_8 
REMARK    5  A    between atoms: C_14  and  N_17 
REMARK    6  A    between atoms: C_23  and  N_26 
ROOT
HETATM    1  C   LIG     1      86.581  90.837  87.161  1.00  0.00     0.067 C 
ENDROOT
BRANCH   1   2
HETATM    2  C   LIG     1      88.030  91.123  87.556  1.00  0.00    -0.014 A 
HETATM    3  C   LIG     1      88.891  90.050  87.860  1.00  0.00    -0.002 A 
HETATM    4  C   LIG     1      90.228  90.286  88.232  1.00  0.00     0.017 A 
HETATM    5  C   LIG     1      90.744  91.603  88.312  1.00  0.00     0.056 A 
HETATM    6  C   LIG     1      89.868  92.675  88.007  1.00  0.00     0.017 A 
HETATM    7  C   LIG     1      88.531  92.440  87.634  1.00  0.00    -0.002 A 
BRANCH   5   8
HETATM    8  N   LIG     1      92.089  91.841  88.685  1.00  0.00    -0.344 N 
HETATM    9  C   LIG     1      92.618  93.200  88.699  1.00  0.00     0.126 C 
HETATM   10  C   LIG     1      92.956  90.729  89.059  1.00  0.00     0.126 C 
ENDBRANCH   5   8
ENDBRANCH   1   2
BRANCH   1  11
HETATM   11  C   LIG     1      85.604  91.938  87.576  1.00  0.00    -0.014 A 
HETATM   12  C   LIG     1      85.152  92.911  86.659  1.00  0.00    -0.002 A 
HETATM   13  C   LIG     1      84.248  93.911  87.067  1.00  0.00     0.017 A 
HETATM   14  C   LIG     1      83.768  93.967  88.399  1.00  0.00     0.056 A 
HETATM   15  C   LIG     1      84.228  92.982  89.309  1.00  0.00     0.017 A 
HETATM   16  C   LIG     1      85.132  91.983  88.903  1.00  0.00    -0.002 A 
BRANCH  14  17
HETATM   17  N   LIG     1      82.859  94.972  88.808  1.00  0.00    -0.344 N 
HETATM   18  C   LIG     1      82.672  96.170  87.997  1.00  0.00     0.126 C 
HETATM   19  C   LIG     1      82.098  94.818  90.043  1.00  0.00     0.126 C 
ENDBRANCH  14  17
ENDBRANCH   1  11
BRANCH   1  20
HETATM   20  C   LIG     1      86.420  90.393  85.708  1.00  0.00    -0.014 A 
HETATM   21  C   LIG     1      85.390  89.490  85.370  1.00  0.00    -0.002 A 
HETATM   22  C   LIG     1      85.222  89.059  84.040  1.00  0.00     0.023 A 
HETATM   23  C   LIG     1      86.083  89.524  83.018  1.00  0.00     0.127 A 
HETATM   24  C   LIG     1      87.115  90.427  83.360  1.00  0.00     0.023 A 
HETATM   25  C   LIG     1      87.283  90.857  84.690  1.00  0.00    -0.002 A 
BRANCH  23  26
HETATM   26  N   LIG     1      85.908  89.073  81.623  1.00  0.00    -0.114 N 
HETATM   27  O   LIG     1      84.910  88.415  81.346  1.00  0.00    -0.532 OA
HETATM   28  O   LIG     1      86.767  89.377  80.802  1.00  0.00    -0.532 OA
ENDBRANCH  23  26
ENDBRANCH   1  20
TORSDOF 6
ENDMDL
MODEL 5
REMARK VINA RESULT:      -0.0      8.182     10.726
REMARK  6 active torsions:
REMARK  status: ('A' for Active; 'I' for Inactive)
REMARK    1  A    between atoms: C_1  and  C_11 
REMARK    2  A    between atoms: C_1  and  C_20 
REMARK    3  A    between atoms: C_1  and  C_2 
REMARK    4  A    between atoms: C_5  and  N_8 
REMARK    5  A    between atoms: C_14  and  N_17 
REMARK    6  A    between atoms: C_23  and  N_26 
ROOT
HETATM    1  C   LIG     1      92.439  90.747  88.884  1.00  0.00     0.067 C 
ENDROOT
BRANCH   1   2
HETATM    2  C   LIG     1      93.553  91.692  89.331  1.00  0.00    -0.014 A 
HETATM    3  C   LIG     1      94.820  91.609  88.721  1.00  0.00    -0.002 A 
HETATM    4  C   LIG     1      95.865  92.465  89.118  1.00  0.00     0.017 A 
HETATM    5  C   LIG     1      95.676  93.429  90.139  1.00  0.00     0.056 A 
HETATM    6  C   LIG     1      94.397  93.502  90.748  1.00  0.00     0.017 A 
HETATM    7  C   LIG     1      93.351  92.647  90.351  1.00  0.00    -0.002 A 
BRANCH   5   8
HETATM    8  N   LIG     1      96.726  94.289  90.538  1.00  0.00    -0.344 N 
HETATM    9  C   LIG     1      98.033  94.200  89.896  1.00  0.00     0.126 C 
HETATM   10  C   LIG     1      96.511  95.273  91.593  1.00  0.00     0.126 C 
ENDBRANCH   5   8
ENDBRANCH   1   2
BRANCH   1  11
HETATM   11  C   LIG     1      91.465  90.374  90.003  1.00  0.00    -0.014 A 
HETATM   12  C   LIG     1      90.205  90.998  90.127  1.00  0.00    -0.002 A 
HETATM   13  C   LIG     1      89.325  90.632  91.164  1.00  0.00     0.017 A 
HETATM   14  C   LIG     1      89.677  89.632  92.106  1.00  0.00     0.056 A 
HETATM   15  C   LIG     1      90.944  89.012  91.967  1.00  0.00     0.017 A 
HETATM   16  C   LIG     1      91.824  89.378  90.932  1.00  0.00    -0.002 A 
BRANCH  14  17
HETATM   17  N   LIG     1      88.793  89.265  93.148  1.00  0.00    -0.344 N 
HETATM   18  C   LIG     1      89.171  88.232  94.105  1.00  0.00     0.126 C 
HETATM   19  C   LIG     1      87.495  89.919  93.275  1.00  0.00     0.126 C 
ENDBRANCH  14  17
ENDBRANCH   1  11
BRANCH   1  20
HETATM   20  C   LIG     1      91.747  91.184  87.593  1.00  0.00    -0.014 A 
HETATM   21  C   LIG     1      91.239  90.205  86.714  1.00  0.00    -0.002 A 
HETATM   22  C   LIG     1      90.602  90.579  85.515  1.00  0.00     0.023 A 
HETATM   23  C   LIG     1      90.461  91.944  85.170  1.00  0.00     0.127 A 
HETATM   24  C   LIG     1      90.974  92.922  86.051  1.00  0.00     0.023 A 
HETATM   25  C   LIG     1      91.611  92.548  87.249  1.00  0.00    -0.002 A 
BRANCH  23  26
HETATM   26  N   LIG     1      89.794  92.337  83.913  1.00  0.00    -0.114 N 
HETATM   27  O   LIG     1      89.746  93.530  83.629  1.00  0.00    -0.532 OA
HETATM   28  O   LIG     1      89.319  91.454  83.206  1.00  0.00    -0.532 OA
ENDBRANCH  23  26
ENDBRANCH   1  20
TORSDOF 6
ENDMDL
MODEL 6
REMARK VINA RESULT:      -0.0      4.258      5.481
REMARK  6 active torsions:
REMARK  status: ('A' for Active; 'I' for Inactive)
REMARK    1  A    between atoms: C_1  and  C_11 
REMARK    2  A    between atoms: C_1  and  C_20 
REMARK    3  A    between atoms: C_1  and  C_2 
REMARK    4  A    between atoms: C_5  and  N_8 
REMARK    5  A    between atoms: C_14  and  N_17 
REMARK    6  A    between atoms: C_23  and  N_26 
ROOT
HETATM    1  C   LIG     1      89.079  93.278  92.161  1.00  0.00     0.067 C 
ENDROOT
BRANCH   1   2
HETATM    2  C   LIG     1      89.972  94.458  92.542  1.00  0.00    -0.014 A 
HETATM    3  C   LIG     1      90.138  95.524  91.636  1.00  0.00    -0.002 A 
HETATM    4  C   LIG     1      90.959  96.621  91.960  1.00  0.00     0.017 A 
HETATM    5  C   LIG     1      91.641  96.684  93.201  1.00  0.00     0.056 A 
HETATM    6  C   LIG     1      91.468  95.604  94.104  1.00  0.00     0.017 A 
HETATM    7  C   LIG     1      90.647  94.508  93.781  1.00  0.00    -0.002 A 
BRANCH   5   8
HETATM    8  N   LIG     1      92.466  97.786  93.528  1.00  0.00    -0.344 N 
HETATM    9  C   LIG     1      93.139  97.842  94.821  1.00  0.00     0.126 C 
HETATM   10  C   LIG     1      92.651  98.874  92.575  1.00  0.00     0.126 C 
ENDBRANCH   5   8
ENDBRANCH   1   2
BRANCH   1  11
HETATM   11  C   LIG     1      89.534  91.947  92.759  1.00  0.00    -0.014 A 
HETATM   12  C   LIG     1      88.917  91.399  93.905  1.00  0.00    -0.002 A 
HETATM   13  C   LIG     1      89.353  90.168  94.432  1.00  0.00     0.017 A 
HETATM   14  C   LIG     1      90.415  89.447  93.831  1.00  0.00     0.056 A 
HETATM   15  C   LIG     1      91.023  90.007  92.679  1.00  0.00     0.017 A 
HETATM   16  C   LIG     1      90.589  91.237  92.152  1.00  0.00    -0.002 A 
BRANCH  14  17
HETATM   17  N   LIG     1      90.852  88.210  94.361  1.00  0.00    -0.344 N 
HETATM   18  C   LIG     1      91.945  87.482  93.727  1.00  0.00     0.126 C 
HETATM   19  C   LIG     1      90.216  87.654  95.550  1.00  0.00     0.126 C 
ENDBRANCH  14  17
ENDBRANCH   1  11
BRANCH   1  20
HETATM   20  C   LIG     1      87.587  93.554  92.348  1.00  0.00    -0.014 A 
HETATM   21  C   LIG     1      86.656  92.941  91.484  1.00  0.00    -0.002 A 
HETATM   22  C   LIG     1      85.276  93.181  91.631  1.00  0.00     0.023 A 
HETATM   23  C   LIG     1      84.799  94.043  92.646  1.00  0.00     0.127 A 
HETATM   24  C   LIG     1      85.736  94.659  93.508  1.00  0.00     0.023 A 
HETATM   25  C   LIG     1      87.114  94.418  93.361  1.00  0.00    -0.002 A 
BRANCH  23  26
HETATM   26  N   LIG     1      83.353  94.297  92.800  1.00  0.00    -0.114 N 
HETATM   27  O   LIG     1      82.991  95.096  93.658  1.00  0.00    -0.532 OA
HETATM   28  O   LIG     1      82.577  93.699  92.062  1.00  0.00    -0.532 OA
ENDBRANCH  23  26
ENDBRANCH   1  20
TORSDOF 6
ENDMDL
MODEL 7
REMARK VINA RESULT:      -0.0      8.076     10.904
REMARK  6 active torsions:
REMARK  status: ('A' for Active; 'I' for Inactive)
REMARK    1  A    between atoms: C_1  and  C_11 
REMARK    2  A    between atoms: C_1  and  C_20 
REMARK    3  A    between atoms: C_1  and  C_2 
REMARK    4  A    between atoms: C_5  and  N_8 
REMARK    5  A    between atoms: C_14  and  N_17 
REMARK    6  A    between atoms: C_23  and  N_26 
ROOT
HETATM    1  C   LIG     1      87.170  86.376  91.081  1.00  0.00     0.067 C 
ENDROOT
BRANCH   1   2
HETATM    2  C   LIG     1      88.155  87.141  91.964  1.00  0.00    -0.014 A 
HETATM    3  C   LIG     1      88.593  86.566  93.173  1.00  0.00    -0.002 A 
HETATM    4  C   LIG     1      89.497  87.252  94.008  1.00  0.00     0.017 A 
HETATM    5  C   LIG     1      89.988  88.535  93.659  1.00  0.00     0.056 A 
HETATM    6  C   LIG     1      89.538  89.105  92.441  1.00  0.00     0.017 A 
HETATM    7  C   LIG     1      88.635  88.419  91.606  1.00  0.00    -0.002 A 
BRANCH   5   8
HETATM    8  N   LIG     1      90.896  89.224  94.498  1.00  0.00    -0.344 N 
HETATM    9  C   LIG     1      91.395  90.540  94.115  1.00  0.00     0.126 C 
HETATM   10  C   LIG     1      91.339  88.625  95.752  1.00  0.00     0.126 C 
ENDBRANCH   5   8
ENDBRANCH   1   2
BRANCH   1  11
HETATM   11  C   LIG     1      86.220  87.282  90.297  1.00  0.00    -0.014 A 
HETATM   12  C   LIG     1      86.437  87.582  88.935  1.00  0.00    -0.002 A 
HETATM   13  C   LIG     1      85.542  88.415  88.235  1.00  0.00     0.017 A 
HETATM   14  C   LIG     1      84.404  88.970  88.873  1.00  0.00     0.056 A 
HETATM   15  C   LIG     1      84.197  88.657  90.240  1.00  0.00     0.017 A 
HETATM   16  C   LIG     1      85.090  87.825  90.940  1.00  0.00    -0.002 A 
BRANCH  14  17
HETATM   17  N   LIG     1      83.506  89.806  88.170  1.00  0.00    -0.344 N 
HETATM   18  C   LIG     1      83.740  90.122  86.765  1.00  0.00     0.126 C 
HETATM   19  C   LIG     1      82.335  90.358  88.842  1.00  0.00     0.126 C 
ENDBRANCH  14  17
ENDBRANCH   1  11
BRANCH   1  20
HETATM   20  C   LIG     1      87.829  85.295  90.224  1.00  0.00    -0.014 A 
HETATM   21  C   LIG     1      87.105  84.126  89.908  1.00  0.00    -0.002 A 
HETATM   22  C   LIG     1      87.690  83.111  89.126  1.00  0.00     0.023 A 
HETATM   23  C   LIG     1      89.013  83.245  88.644  1.00  0.00     0.127 A 
HETATM   24  C   LIG     1      89.736  84.416  88.965  1.00  0.00     0.023 A 
HETATM   25  C   LIG     1      89.152  85.430  89.746  1.00  0.00    -0.002 A 
BRANCH  23  26
HETATM   26  N   LIG     1      89.626  82.181  87.824  1.00  0.00    -0.114 N 
HETATM   27  O   LIG     1      90.795  82.315  87.478  1.00  0.00    -0.532 OA
HETATM   28  O   LIG     1      88.940  81.209  87.527  1.00  0.00    -0.532 OA
ENDBRANCH  23  26
ENDBRANCH   1  20
TORSDOF 6
ENDMDL
MODEL 8
REMARK VINA RESULT:      -0.0      6.673      9.674
REMARK  6 active torsions:
REMARK  status: ('A' for Active; 'I' for Inactive)
REMARK    1  A    between atoms: C_1  and  C_11 
REMARK    2  A    between atoms: C_1  and  C_20 
REMARK    3  A    between atoms: C_1  and  C_2 
REMARK    4  A    between atoms: C_5  and  N_8 
REMARK    5  A    between atoms: C_14  and  N_17 
REMARK    6  A    between atoms: C_23  and  N_26 
ROOT
HETATM    1  C   LIG     1      87.533  93.391  86.241  1.00  0.00     0.067 C 
ENDROOT
BRANCH   1   2
HETATM    2  C   LIG     1      88.817  92.562  86.210  1.00  0.00    -0.014 A 
HETATM    3  C   LIG     1      89.613  92.561  85.048  1.00  0.00    -0.002 A 
HETATM    4  C   LIG     1      90.799  91.803  84.991  1.00  0.00     0.017 A 
HETATM    5  C   LIG     1      91.221  91.020  86.094  1.00  0.00     0.056 A 
HETATM    6  C   LIG     1      90.410  91.026  87.257  1.00  0.00     0.017 A 
HETATM    7  C   LIG     1      89.226  91.785  87.315  1.00  0.00    -0.002 A 
BRANCH   5   8
HETATM    8  N   LIG     1      92.412  90.258  86.037  1.00  0.00    -0.344 N 
HETATM    9  C   LIG     1      92.831  89.463  87.186  1.00  0.00     0.126 C 
HETATM   10  C   LIG     1      93.230  90.260  84.829  1.00  0.00     0.126 C 
ENDBRANCH   5   8
ENDBRANCH   1   2
BRANCH   1  11
HETATM   11  C   LIG     1      86.432  92.781  87.110  1.00  0.00    -0.014 A 
HETATM   12  C   LIG     1      86.174  93.249  88.416  1.00  0.00    -0.002 A 
HETATM   13  C   LIG     1      85.150  92.673  89.193  1.00  0.00     0.017 A 
HETATM   14  C   LIG     1      84.352  91.616  88.687  1.00  0.00     0.056 A 
HETATM   15  C   LIG     1      84.620  91.158  87.372  1.00  0.00     0.017 A 
HETATM   16  C   LIG     1      85.643  91.733  86.596  1.00  0.00    -0.002 A 
BRANCH  14  17
HETATM   17  N   LIG     1      83.323  91.038  89.468  1.00  0.00    -0.344 N 
HETATM   18  C   LIG     1      83.064  91.521  90.819  1.00  0.00     0.126 C 
HETATM   19  C   LIG     1      82.510  89.955  88.926  1.00  0.00     0.126 C 
ENDBRANCH  14  17
ENDBRANCH   1  11
BRANCH   1  20
HETATM   20  C   LIG     1      87.771  94.877  86.509  1.00  0.00    -0.014 A 
HETATM   21  C   LIG     1      86.904  95.831  85.936  1.00  0.00    -0.002 A 
HETATM   22  C   LIG     1      87.102  97.206  86.162  1.00  0.00     0.023 A 
HETATM   23  C   LIG     1      88.175  97.657  86.967  1.00  0.00     0.127 A 
HETATM   24  C   LIG     1      89.043  96.698  87.537  1.00  0.00     0.023 A 
HETATM   25  C   LIG     1      88.845  95.323  87.311  1.00  0.00    -0.002 A 
BRANCH  23  26
HETATM   26  N   LIG     1      88.384  99.099  87.203  1.00  0.00    -0.114 N 
HETATM   27  O   LIG     1      89.362  99.444  87.860  1.00  0.00    -0.532 OA
HETATM   28  O   LIG     1      87.573  99.889  86.732  1.00  0.00    -0.532 OA
ENDBRANCH  23  26
ENDBRANCH   1  20
TORSDOF 6
ENDMDL
MODEL 9
REMARK VINA RESULT:      -0.0      8.867     12.599
REMARK  6 active torsions:
REMARK  status: ('A' for Active; 'I' for Inactive)
REMARK    1  A    between atoms: C_1  and  C_11 
REMARK    2  A    between atoms: C_1  and  C_20 
REMARK    3  A    between atoms: C_1  and  C_2 
REMARK    4  A    between atoms: C_5  and  N_8 
REMARK    5  A    between atoms: C_14  and  N_17 
REMARK    6  A    between atoms: C_23  and  N_26 
ROOT
HETATM    1  C   LIG     1      91.388  88.587  87.080  1.00  0.00     0.067 C 
ENDROOT
BRANCH   1   2
HETATM    2  C   LIG     1      90.375  88.548  88.224  1.00  0.00    -0.014 A 
HETATM    3  C   LIG     1      89.911  87.304  88.696  1.00  0.00    -0.002 A 
HETATM    4  C   LIG     1      88.974  87.240  89.746  1.00  0.00     0.017 A 
HETATM    5  C   LIG     1      88.472  88.417  90.352  1.00  0.00     0.056 A 
HETATM    6  C   LIG     1      88.944  89.663  89.867  1.00  0.00     0.017 A 
HETATM    7  C   LIG     1      89.881  89.728  88.818  1.00  0.00    -0.002 A 
BRANCH   5   8
HETATM    8  N   LIG     1      87.530  88.353  91.407  1.00  0.00    -0.344 N 
HETATM    9  C   LIG     1      87.065  87.061  91.898  1.00  0.00     0.126 C 
HETATM   10  C   LIG     1      87.019  89.577  92.013  1.00  0.00     0.126 C 
ENDBRANCH   5   8
ENDBRANCH   1   2
BRANCH   1  11
HETATM   11  C   LIG     1      91.246  89.813  86.177  1.00  0.00    -0.014 A 
HETATM   12  C   LIG     1      92.097  90.932  86.307  1.00  0.00    -0.002 A 
HETATM   13  C   LIG     1      91.947  92.046  85.459  1.00  0.00     0.017 A 
HETATM   14  C   LIG     1      90.945  92.075  84.456  1.00  0.00     0.056 A 
HETATM   15  C   LIG     1      90.100  90.944  84.335  1.00  0.00     0.017 A 
HETATM   16  C   LIG     1      90.249  89.831  85.182  1.00  0.00    -0.002 A 
BRANCH  14  17
HETATM   17  N   LIG     1      90.795  93.196  83.604  1.00  0.00    -0.344 N 
HETATM   18  C   LIG     1      91.673  94.351  83.746  1.00  0.00     0.126 C 
HETATM   19  C   LIG     1      89.762  93.203  82.574  1.00  0.00     0.126 C 
ENDBRANCH  14  17
ENDBRANCH   1  11
BRANCH   1  20
HETATM   20  C   LIG     1      92.826  88.321  87.526  1.00  0.00    -0.014 A 
HETATM   21  C   LIG     1      93.716  87.675  86.644  1.00  0.00    -0.002 A 
HETATM   22  C   LIG     1      95.045  87.412  87.031  1.00  0.00     0.023 A 
HETATM   23  C   LIG     1      95.510  87.790  88.312  1.00  0.00     0.127 A 
HETATM   24  C   LIG     1      94.614  88.435  89.195  1.00  0.00     0.023 A 
HETATM   25  C   LIG     1      93.287  88.698  88.808  1.00  0.00    -0.002 A 
BRANCH  23  26
HETATM   26  N   LIG     1      96.902  87.515  88.719  1.00  0.00    -0.114 N 
HETATM   27  O   LIG     1      97.243  87.810  89.860  1.00  0.00    -0.532 OA
HETATM   28  O   LIG     1      97.656  87.001  87.899  1.00  0.00    -0.532 OA
ENDBRANCH  23  26
ENDBRANCH   1  20
TORSDOF 6
ENDMDL
