MODEL 1
REMARK VINA RESULT:      -0.0      0.000      0.000
REMARK  4 active torsions:
REMARK  status: ('A' for Active; 'I' for Inactive)
REMARK    1  A    between atoms: C_1  and  C_8 
REMARK    2  A    between atoms: C_1  and  C_12 
REMARK    3  A    between atoms: C_8  and  C_9 
REMARK    4  A    between atoms: C_12  and  C_13 
ROOT
HETATM    1  C   LIG     1      93.626  85.348  89.797  1.00  0.00     0.020 C 
HETATM    2  C   LIG     1      93.908  83.836  90.053  1.00  0.00     0.001 C 
HETATM    3  C   LIG     1      93.830  82.941  88.802  1.00  0.00     0.000 C 
HETATM    4  C   LIG     1      94.569  85.792  88.637  1.00  0.00     0.001 C 
HETATM    5  C   LIG     1      94.750  83.455  87.689  1.00  0.00     0.000 C 
HETATM    6  C   LIG     1      94.456  84.928  87.362  1.00  0.00     0.000 C 
HETATM    7  C   LIG     1      95.382  85.447  86.253  1.00  0.00     0.000 C 
ENDROOT
BRANCH   1   8
HETATM    8  C   LIG     1      92.098  85.497  89.461  1.00  0.00     0.098 C 
BRANCH   8   9
HETATM    9  C   LIG     1      91.130  85.696  90.639  1.00  0.00     0.185 C 
HETATM   10  O   LIG     1      90.790  84.675  91.274  1.00  0.00    -0.647 OA
HETATM   11  O   LIG     1      90.678  86.847  90.831  1.00  0.00    -0.647 OA
ENDBRANCH   8   9
ENDBRANCH   1   8
BRANCH   1  12
HETATM   12  C   LIG     1      93.999  86.065  91.143  1.00  0.00     0.098 C 
BRANCH  12  13
HETATM   13  C   LIG     1      94.504  87.515  91.063  1.00  0.00     0.185 C 
HETATM   14  O   LIG     1      95.707  87.729  91.328  1.00  0.00    -0.647 OA
HETATM   15  O   LIG     1      93.652  88.398  90.823  1.00  0.00    -0.647 OA
ENDBRANCH  12  13
ENDBRANCH   1  12
TORSDOF 4
ENDMDL
MODEL 2
REMARK VINA RESULT:      -0.0      7.426      8.810
REMARK  4 active torsions:
REMARK  status: ('A' for Active; 'I' for Inactive)
REMARK    1  A    between atoms: C_1  and  C_8 
REMARK    2  A    between atoms: C_1  and  C_12 
REMARK    3  A    between atoms: C_8  and  C_9 
REMARK    4  A    between atoms: C_12  and  C_13 
ROOT
HETATM    1  C   LIG     1      87.505  89.114  85.551  1.00  0.00     0.020 C 
HETATM    2  C   LIG     1      87.676  89.682  86.993  1.00  0.00     0.001 C 
HETATM    3  C   LIG     1      87.876  88.620  88.090  1.00  0.00     0.000 C 
HETATM    4  C   LIG     1      88.711  88.157  85.299  1.00  0.00     0.001 C 
HETATM    5  C   LIG     1      89.050  87.691  87.761  1.00  0.00     0.000 C 
HETATM    6  C   LIG     1      88.885  87.058  86.370  1.00  0.00     0.000 C 
HETATM    7  C   LIG     1      90.064  86.135  86.034  1.00  0.00     0.000 C 
ENDROOT
BRANCH   1   8
HETATM    8  C   LIG     1      86.107  88.398  85.485  1.00  0.00     0.098 C 
BRANCH   8   9
HETATM    9  C   LIG     1      84.890  89.256  85.102  1.00  0.00     0.185 C 
HETATM   10  O   LIG     1      84.381  89.953  86.005  1.00  0.00    -0.647 OA
HETATM   11  O   LIG     1      84.436  89.136  83.942  1.00  0.00    -0.647 OA
ENDBRANCH   8   9
ENDBRANCH   1   8
BRANCH   1  12
HETATM   12  C   LIG     1      87.563  90.368  84.610  1.00  0.00     0.098 C 
BRANCH  12  13
HETATM   13  C   LIG     1      88.111  90.168  83.188  1.00  0.00     0.185 C 
HETATM   14  O   LIG     1      89.220  90.676  82.914  1.00  0.00    -0.647 OA
HETATM   15  O   LIG     1      87.366  89.582  82.372  1.00  0.00    -0.647 OA
ENDBRANCH  12  13
ENDBRANCH   1  12
TORSDOF 4
ENDMDL
MODEL 3
REMARK VINA RESULT:      -0.0      4.743      6.859
REMARK  4 active torsions:
REMARK  status: ('A' for Active; 'I' for Inactive)
REMARK    1  A    between atoms: C_1  and  C_8 
REMARK    2  A    between atoms: C_1  and  C_12 
REMARK    3  A    between atoms: C_8  and  C_9 
REMARK    4  A    between atoms: C_12  and  C_13 
ROOT
HETATM    1  C   LIG     1      89.344  87.630  92.671  1.00  0.00     0.020 C 
HETATM    2  C   LIG     1      89.887  89.039  92.284  1.00  0.00     0.001 C 
HETATM    3  C   LIG     1      89.913  89.332  90.772  1.00  0.00     0.000 C 
HETATM    4  C   LIG     1      87.960  87.472  91.968  1.00  0.00     0.001 C 
HETATM    5  C   LIG     1      88.533  89.120  90.139  1.00  0.00     0.000 C 
HETATM    6  C   LIG     1      87.991  87.715  90.444  1.00  0.00     0.000 C 
HETATM    7  C   LIG     1      86.605  87.503  89.818  1.00  0.00     0.000 C 
ENDROOT
BRANCH   1   8
HETATM    8  C   LIG     1      90.409  86.568  92.214  1.00  0.00     0.098 C 
BRANCH   8   9
HETATM    9  C   LIG     1      91.529  86.216  93.206  1.00  0.00     0.185 C 
HETATM   10  O   LIG     1      92.493  87.007  93.278  1.00  0.00    -0.647 OA
HETATM   11  O   LIG     1      91.448  85.123  93.811  1.00  0.00    -0.647 OA
ENDBRANCH   8   9
ENDBRANCH   1   8
BRANCH   1  12
HETATM   12  C   LIG     1      89.192  87.668  94.233  1.00  0.00     0.098 C 
BRANCH  12  13
HETATM   13  C   LIG     1      88.096  86.794  94.864  1.00  0.00     0.185 C 
HETATM   14  O   LIG     1      87.108  87.372  95.368  1.00  0.00    -0.647 OA
HETATM   15  O   LIG     1      88.310  85.563  94.909  1.00  0.00    -0.647 OA
ENDBRANCH  12  13
ENDBRANCH   1  12
TORSDOF 4
ENDMDL
MODEL 4
REMARK VINA RESULT:      -0.0     10.218     12.248
REMARK  4 active torsions:
REMARK  status: ('A' for Active; 'I' for Inactive)
REMARK    1  A    between atoms: C_1  and  C_8 
REMARK    2  A    between atoms: C_1  and  C_12 
REMARK    3  A    between atoms: C_8  and  C_9 
REMARK    4  A    between atoms: C_12  and  C_13 
ROOT
HETATM    1  C   LIG     1      88.758  96.275  91.778  1.00  0.00     0.020 C 
HETATM    2  C   LIG     1      87.494  97.118  91.427  1.00  0.00     0.001 C 
HETATM    3  C   LIG     1      86.761  96.686  90.144  1.00  0.00     0.000 C 
HETATM    4  C   LIG     1      88.316  94.779  91.770  1.00  0.00     0.001 C 
HETATM    5  C   LIG     1      86.392  95.199  90.186  1.00  0.00     0.000 C 
HETATM    6  C   LIG     1      87.626  94.327  90.465  1.00  0.00     0.000 C 
HETATM    7  C   LIG     1      87.257  92.838  90.516  1.00  0.00     0.000 C 
ENDROOT
BRANCH   1   8
HETATM    8  C   LIG     1      89.865  96.612  90.715  1.00  0.00     0.098 C 
BRANCH   8   9
HETATM    9  C   LIG     1      90.792  97.802  91.011  1.00  0.00     0.185 C 
HETATM   10  O   LIG     1      90.347  98.943  90.765  1.00  0.00    -0.647 OA
HETATM   11  O   LIG     1      91.957  97.550  91.394  1.00  0.00    -0.647 OA
ENDBRANCH   8   9
ENDBRANCH   1   8
BRANCH   1  12
HETATM   12  C   LIG     1      89.171  96.741  93.219  1.00  0.00     0.098 C 
BRANCH  12  13
HETATM   13  C   LIG     1      89.876  95.720  94.125  1.00  0.00     0.185 C 
HETATM   14  O   LIG     1      89.246  95.284  95.113  1.00  0.00    -0.647 OA
HETATM   15  O   LIG     1      91.070  95.458  93.860  1.00  0.00    -0.647 OA
ENDBRANCH  12  13
ENDBRANCH   1  12
TORSDOF 4
ENDMDL
MODEL 5
REMARK VINA RESULT:      -0.0      6.793      8.854
REMARK  4 active torsions:
REMARK  status: ('A' for Active; 'I' for Inactive)
REMARK    1  A    between atoms: C_1  and  C_8 
REMARK    2  A    between atoms: C_1  and  C_12 
REMARK    3  A    between atoms: C_8  and  C_9 
REMARK    4  A    between atoms: C_12  and  C_13 
ROOT
HETATM    1  C   LIG     1      92.259  93.371  88.656  1.00  0.00     0.020 C 
HETATM    2  C   LIG     1      93.181  94.453  88.016  1.00  0.00     0.001 C 
HETATM    3  C   LIG     1      93.826  95.431  89.016  1.00  0.00     0.000 C 
HETATM    4  C   LIG     1      93.090  92.678  89.780  1.00  0.00     0.001 C 
HETATM    5  C   LIG     1      94.592  94.684  90.113  1.00  0.00     0.000 C 
HETATM    6  C   LIG     1      93.695  93.652  90.814  1.00  0.00     0.000 C 
HETATM    7  C   LIG     1      94.463  92.896  91.907  1.00  0.00     0.000 C 
ENDROOT
BRANCH   1   8
HETATM    8  C   LIG     1      90.968  94.098  89.183  1.00  0.00     0.098 C 
BRANCH   8   9
HETATM    9  C   LIG     1      89.798  94.263  88.200  1.00  0.00     0.185 C 
HETATM   10  O   LIG     1      89.874  95.203  87.380  1.00  0.00    -0.647 OA
HETATM   11  O   LIG     1      88.810  93.507  88.339  1.00  0.00    -0.647 OA
ENDBRANCH   8   9
ENDBRANCH   1   8
BRANCH   1  12
HETATM   12  C   LIG     1      91.931  92.374  87.489  1.00  0.00     0.098 C 
BRANCH  12  13
HETATM   13  C   LIG     1      91.664  90.906  87.859  1.00  0.00     0.185 C 
HETATM   14  O   LIG     1      92.517  90.056  87.523  1.00  0.00    -0.647 OA
HETATM   15  O   LIG     1      90.565  90.649  88.397  1.00  0.00    -0.647 OA
ENDBRANCH  12  13
ENDBRANCH   1  12
TORSDOF 4
ENDMDL
MODEL 6
REMARK VINA RESULT:      -0.0      9.326     11.185
REMARK  4 active torsions:
REMARK  status: ('A' for Active; 'I' for Inactive)
REMARK    1  A    between atoms: C_1  and  C_8 
REMARK    2  A    between atoms: C_1  and  C_12 
REMARK    3  A    between atoms: C_8  and  C_9 
REMARK    4  A    between atoms: C_12  and  C_13 
ROOT
HETATM    1  C   LIG     1      92.001  93.612  96.067  1.00  0.00     0.020 C 
HETATM    2  C   LIG     1      91.417  94.211  94.751  1.00  0.00     0.001 C 
HETATM    3  C   LIG     1      90.389  95.340  94.952  1.00  0.00     0.000 C 
HETATM    4  C   LIG     1      92.528  94.812  96.913  1.00  0.00     0.001 C 
HETATM    5  C   LIG     1      90.959  96.466  95.822  1.00  0.00     0.000 C 
HETATM    6  C   LIG     1      91.485  95.923  97.160  1.00  0.00     0.000 C 
HETATM    7  C   LIG     1      92.063  97.047  98.029  1.00  0.00     0.000 C 
ENDROOT
BRANCH   1   8
HETATM    8  C   LIG     1      90.852  92.801  96.770  1.00  0.00     0.098 C 
BRANCH   8   9
HETATM    9  C   LIG     1      90.685  91.324  96.378  1.00  0.00     0.185 C 
HETATM   10  O   LIG     1      90.071  91.085  95.316  1.00  0.00    -0.647 OA
HETATM   11  O   LIG     1      91.094  90.459  97.184  1.00  0.00    -0.647 OA
ENDBRANCH   8   9
ENDBRANCH   1   8
BRANCH   1  12
HETATM   12  C   LIG     1      93.174  92.678  95.604  1.00  0.00     0.098 C 
BRANCH  12  13
HETATM   13  C   LIG     1      94.357  92.488  96.567  1.00  0.00     0.185 C 
HETATM   14  O   LIG     1      95.454  92.996  96.250  1.00  0.00    -0.647 OA
HETATM   15  O   LIG     1      94.162  91.760  97.565  1.00  0.00    -0.647 OA
ENDBRANCH  12  13
ENDBRANCH   1  12
TORSDOF 4
ENDMDL
MODEL 7
REMARK VINA RESULT:      -0.0      1.996      3.447
REMARK  4 active torsions:
REMARK  status: ('A' for Active; 'I' for Inactive)
REMARK    1  A    between atoms: C_1  and  C_8 
REMARK    2  A    between atoms: C_1  and  C_12 
REMARK    3  A    between atoms: C_8  and  C_9 
REMARK    4  A    between atoms: C_12  and  C_13 
ROOT
HETATM    1  C   LIG     1      94.313  84.697  89.665  1.00  0.00     0.020 C 
HETATM    2  C   LIG     1      95.680  84.010  89.969  1.00  0.00     0.001 C 
HETATM    3  C   LIG     1      95.579  82.657  90.698  1.00  0.00     0.000 C 
HETATM    4  C   LIG     1      93.433  83.641  88.928  1.00  0.00     0.001 C 
HETATM    5  C   LIG     1      94.670  81.682  89.941  1.00  0.00     0.000 C 
HETATM    6  C   LIG     1      93.287  82.300  89.680  1.00  0.00     0.000 C 
HETATM    7  C   LIG     1      92.378  81.329  88.914  1.00  0.00     0.000 C 
ENDROOT
BRANCH   1   8
HETATM    8  C   LIG     1      93.709  85.178  91.034  1.00  0.00     0.098 C 
BRANCH   8   9
HETATM    9  C   LIG     1      94.103  86.579  91.529  1.00  0.00     0.185 C 
HETATM   10  O   LIG     1      95.212  86.691  92.093  1.00  0.00    -0.647 OA
HETATM   11  O   LIG     1      93.257  87.495  91.416  1.00  0.00    -0.647 OA
ENDBRANCH   8   9
ENDBRANCH   1   8
BRANCH   1  12
HETATM   12  C   LIG     1      94.664  85.905  88.726  1.00  0.00     0.098 C 
BRANCH  12  13
HETATM   13  C   LIG     1      93.600  86.353  87.712  1.00  0.00     0.185 C 
HETATM   14  O   LIG     1      93.824  86.140  86.500  1.00  0.00    -0.647 OA
HETATM   15  O   LIG     1      92.618  86.982  88.163  1.00  0.00    -0.647 OA
ENDBRANCH  12  13
ENDBRANCH   1  12
TORSDOF 4
ENDMDL
MODEL 8
REMARK VINA RESULT:      -0.0      7.713      9.923
REMARK  4 active torsions:
REMARK  status: ('A' for Active; 'I' for Inactive)
REMARK    1  A    between atoms: C_1  and  C_8 
REMARK    2  A    between atoms: C_1  and  C_12 
REMARK    3  A    between atoms: C_8  and  C_9 
REMARK    4  A    between atoms: C_12  and  C_13 
ROOT
HETATM    1  C   LIG     1      83.756  86.357  89.027  1.00  0.00     0.020 C 
HETATM    2  C   LIG     1      82.897  85.108  89.391  1.00  0.00     0.001 C 
HETATM    3  C   LIG     1      83.310  83.806  88.679  1.00  0.00     0.000 C 
HETATM    4  C   LIG     1      85.248  85.956  89.246  1.00  0.00     0.001 C 
HETATM    5  C   LIG     1      84.794  83.493  88.903  1.00  0.00     0.000 C 
HETATM    6  C   LIG     1      85.680  84.680  88.492  1.00  0.00     0.000 C 
HETATM    7  C   LIG     1      87.166  84.373  88.724  1.00  0.00     0.000 C 
ENDROOT
BRANCH   1   8
HETATM    8  C   LIG     1      83.419  86.749  87.543  1.00  0.00     0.098 C 
BRANCH   8   9
HETATM    9  C   LIG     1      82.242  87.711  87.315  1.00  0.00     0.185 C 
HETATM   10  O   LIG     1      81.093  87.219  87.342  1.00  0.00    -0.647 OA
HETATM   11  O   LIG     1      82.509  88.901  87.031  1.00  0.00    -0.647 OA
ENDBRANCH   8   9
ENDBRANCH   1   8
BRANCH   1  12
HETATM   12  C   LIG     1      83.308  87.468  90.040  1.00  0.00     0.098 C 
BRANCH  12  13
HETATM   13  C   LIG     1      84.345  88.529  90.442  1.00  0.00     0.185 C 
HETATM   14  O   LIG     1      84.784  88.501  91.612  1.00  0.00    -0.647 OA
HETATM   15  O   LIG     1      84.616  89.405  89.592  1.00  0.00    -0.647 OA
ENDBRANCH  12  13
ENDBRANCH   1  12
TORSDOF 4
ENDMDL
MODEL 9
REMARK VINA RESULT:      -0.0      4.678      7.148
REMARK  4 active torsions:
REMARK  status: ('A' for Active; 'I' for Inactive)
REMARK    1  A    between atoms: C_1  and  C_8 
REMARK    2  A    between atoms: C_1  and  C_12 
REMARK    3  A    between atoms: C_8  and  C_9 
REMARK    4  A    between atoms: C_12  and  C_13 
ROOT
HETATM    1  C   LIG     1      89.495  85.453  94.175  1.00  0.00     0.020 C 
HETATM    2  C   LIG     1      90.033  86.467  95.229  1.00  0.00     0.001 C 
HETATM    3  C   LIG     1      90.071  85.941  96.676  1.00  0.00     0.000 C 
HETATM    4  C   LIG     1      90.316  84.139  94.354  1.00  0.00     0.001 C 
HETATM    5  C   LIG     1      90.859  84.630  96.773  1.00  0.00     0.000 C 
HETATM    6  C   LIG     1      90.314  83.580  95.793  1.00  0.00     0.000 C 
HETATM    7  C   LIG     1      91.107  82.269  95.882  1.00  0.00     0.000 C 
ENDROOT
BRANCH   1   8
HETATM    8  C   LIG     1      87.954  85.274  94.431  1.00  0.00     0.098 C 
BRANCH   8   9
HETATM    9  C   LIG     1      87.000  86.249  93.721  1.00  0.00     0.185 C 
HETATM   10  O   LIG     1      86.855  87.378  94.238  1.00  0.00    -0.647 OA
HETATM   11  O   LIG     1      86.367  85.824  92.729  1.00  0.00    -0.647 OA
ENDBRANCH   8   9
ENDBRANCH   1   8
BRANCH   1  12
HETATM   12  C   LIG     1      89.780  86.122  92.784  1.00  0.00     0.098 C 
BRANCH  12  13
HETATM   13  C   LIG     1      90.032  85.194  91.585  1.00  0.00     0.185 C 
HETATM   14  O   LIG     1      91.189  85.152  91.112  1.00  0.00    -0.647 OA
HETATM   15  O   LIG     1      89.037  84.608  91.105  1.00  0.00    -0.647 OA
ENDBRANCH  12  13
ENDBRANCH   1  12
TORSDOF 4
ENDMDL
