MODEL 1
REMARK VINA RESULT:      -0.0      0.000      0.000
REMARK  3 active torsions:
REMARK  status: ('A' for Active; 'I' for Inactive)
REMARK    1  A    between atoms: C_3  and  N_7 
REMARK    2  A    between atoms: C_5  and  S_15 
REMARK    3  A    between atoms: N_8  and  C_9 
ROOT
HETATM    1  C   LIG     1      93.227  96.942  88.261  1.00  0.00     0.022 A 
HETATM    2  C   LIG     1      93.858  96.552  87.064  1.00  0.00     0.015 A 
HETATM    3  C   LIG     1      92.305  96.081  88.891  1.00  0.00     0.103 A 
HETATM    4  C   LIG     1      91.991  94.835  88.298  1.00  0.00     0.022 A 
HETATM    5  C   LIG     1      93.561  95.298  86.492  1.00  0.00     0.104 A 
HETATM    6  C   LIG     1      92.621  94.442  87.102  1.00  0.00     0.015 A 
ENDROOT
BRANCH   3   7
HETATM    7  N   LIG     1      91.675  96.514  90.085  1.00  0.00    -0.148 NA
HETATM    8  N   LIG     1      92.032  96.085  91.212  1.00  0.00    -0.148 NA
BRANCH   8   9
HETATM    9  C   LIG     1      93.353  95.629  91.453  1.00  0.00     0.103 A 
HETATM   10  C   LIG     1      93.589  94.241  91.521  1.00  0.00     0.021 A 
HETATM   11  C   LIG     1      94.886  93.755  91.775  1.00  0.00     0.002 A 
HETATM   12  C   LIG     1      95.950  94.655  91.974  1.00  0.00     0.000 A 
HETATM   13  C   LIG     1      95.718  96.043  91.924  1.00  0.00     0.002 A 
HETATM   14  C   LIG     1      94.421  96.531  91.670  1.00  0.00     0.021 A 
ENDBRANCH   8   9
ENDBRANCH   3   7
BRANCH   5  15
HETATM   15  S   LIG     1      94.357  94.805  84.965  1.00  0.00     0.139 S 
HETATM   16  O   LIG     1      93.247  94.709  84.003  1.00  0.00    -0.591 OA
HETATM   17  O   LIG     1      94.991  93.519  85.297  1.00  0.00    -0.591 OA
HETATM   18  O   LIG     1      95.297  95.907  84.711  1.00  0.00    -0.591 OA
ENDBRANCH   5  15
TORSDOF 3
ENDMDL
MODEL 2
REMARK VINA RESULT:      -0.0      5.012      6.212
REMARK  3 active torsions:
REMARK  status: ('A' for Active; 'I' for Inactive)
REMARK    1  A    between atoms: C_3  and  N_7 
REMARK    2  A    between atoms: C_5  and  S_15 
REMARK    3  A    between atoms: N_8  and  C_9 
ROOT
HETATM    1  C   LIG     1      96.291  93.010  85.369  1.00  0.00     0.022 A 
HETATM    2  C   LIG     1      95.543  92.597  86.488  1.00  0.00     0.015 A 
HETATM    3  C   LIG     1      95.885  94.134  84.619  1.00  0.00     0.103 A 
HETATM    4  C   LIG     1      94.704  94.825  84.975  1.00  0.00     0.022 A 
HETATM    5  C   LIG     1      94.381  93.306  86.853  1.00  0.00     0.104 A 
HETATM    6  C   LIG     1      93.954  94.415  86.094  1.00  0.00     0.015 A 
ENDROOT
BRANCH   3   7
HETATM    7  N   LIG     1      96.653  94.510  83.488  1.00  0.00    -0.148 NA
HETATM    8  N   LIG     1      97.444  95.488  83.523  1.00  0.00    -0.148 NA
BRANCH   8   9
HETATM    9  C   LIG     1      98.050  95.914  84.733  1.00  0.00     0.103 A 
HETATM   10  C   LIG     1      97.551  97.069  85.370  1.00  0.00     0.021 A 
HETATM   11  C   LIG     1      98.140  97.529  86.563  1.00  0.00     0.002 A 
HETATM   12  C   LIG     1      99.238  96.843  87.119  1.00  0.00     0.000 A 
HETATM   13  C   LIG     1      99.751  95.699  86.478  1.00  0.00     0.002 A 
HETATM   14  C   LIG     1      99.163  95.237  85.284  1.00  0.00     0.021 A 
ENDBRANCH   8   9
ENDBRANCH   3   7
BRANCH   5  15
HETATM   15  S   LIG     1      93.423  92.775  88.272  1.00  0.00     0.139 S 
HETATM   16  O   LIG     1      92.130  92.372  87.694  1.00  0.00    -0.591 OA
HETATM   17  O   LIG     1      93.365  93.972  89.125  1.00  0.00    -0.591 OA
HETATM   18  O   LIG     1      94.225  91.669  88.816  1.00  0.00    -0.591 OA
ENDBRANCH   5  15
TORSDOF 3
ENDMDL
MODEL 3
REMARK VINA RESULT:      -0.0      9.523     11.008
REMARK  3 active torsions:
REMARK  status: ('A' for Active; 'I' for Inactive)
REMARK    1  A    between atoms: C_3  and  N_7 
REMARK    2  A    between atoms: C_5  and  S_15 
REMARK    3  A    between atoms: N_8  and  C_9 
ROOT
HETATM    1  C   LIG     1      93.635  87.689  92.114  1.00  0.00     0.022 A 
HETATM    2  C   LIG     1      92.963  86.761  92.933  1.00  0.00     0.015 A 
HETATM    3  C   LIG     1      94.788  87.301  91.401  1.00  0.00     0.103 A 
HETATM    4  C   LIG     1      95.289  85.985  91.538  1.00  0.00     0.022 A 
HETATM    5  C   LIG     1      93.451  85.443  93.044  1.00  0.00     0.104 A 
HETATM    6  C   LIG     1      94.618  85.055  92.355  1.00  0.00     0.015 A 
ENDROOT
BRANCH   3   7
HETATM    7  N   LIG     1      95.449  88.266  90.600  1.00  0.00    -0.148 NA
HETATM    8  N   LIG     1      95.332  88.277  89.347  1.00  0.00    -0.148 NA
BRANCH   8   9
HETATM    9  C   LIG     1      94.178  87.762  88.702  1.00  0.00     0.103 A 
HETATM   10  C   LIG     1      94.258  86.500  88.079  1.00  0.00     0.021 A 
HETATM   11  C   LIG     1      93.136  85.967  87.415  1.00  0.00     0.002 A 
HETATM   12  C   LIG     1      91.934  86.699  87.361  1.00  0.00     0.000 A 
HETATM   13  C   LIG     1      91.854  87.967  87.968  1.00  0.00     0.002 A 
HETATM   14  C   LIG     1      92.975  88.502  88.632  1.00  0.00     0.021 A 
ENDBRANCH   8   9
ENDBRANCH   3   7
BRANCH   5  15
HETATM   15  S   LIG     1      92.602  84.265  94.094  1.00  0.00     0.139 S 
HETATM   16  O   LIG     1      93.585  83.956  95.145  1.00  0.00    -0.591 OA
HETATM   17  O   LIG     1      92.299  83.143  93.191  1.00  0.00    -0.591 OA
HETATM   18  O   LIG     1      91.426  85.019  94.554  1.00  0.00    -0.591 OA
ENDBRANCH   5  15
TORSDOF 3
ENDMDL
MODEL 4
REMARK VINA RESULT:      -0.0     12.184     13.075
REMARK  3 active torsions:
REMARK  status: ('A' for Active; 'I' for Inactive)
REMARK    1  A    between atoms: C_3  and  N_7 
REMARK    2  A    between atoms: C_5  and  S_15 
REMARK    3  A    between atoms: N_8  and  C_9 
ROOT
HETATM    1  C   LIG     1      88.258  85.248  89.852  1.00  0.00     0.022 A 
HETATM    2  C   LIG     1      87.134  84.564  89.349  1.00  0.00     0.015 A 
HETATM    3  C   LIG     1      88.142  86.056  91.002  1.00  0.00     0.103 A 
HETATM    4  C   LIG     1      86.884  86.204  91.632  1.00  0.00     0.022 A 
HETATM    5  C   LIG     1      85.889  84.695  89.996  1.00  0.00     0.104 A 
HETATM    6  C   LIG     1      85.758  85.521  91.132  1.00  0.00     0.015 A 
ENDROOT
BRANCH   3   7
HETATM    7  N   LIG     1      89.291  86.743  91.470  1.00  0.00    -0.148 NA
HETATM    8  N   LIG     1      89.938  86.343  92.471  1.00  0.00    -0.148 NA
BRANCH   8   9
HETATM    9  C   LIG     1      89.955  84.976  92.850  1.00  0.00     0.103 A 
HETATM   10  C   LIG     1      89.173  84.567  93.950  1.00  0.00     0.021 A 
HETATM   11  C   LIG     1      89.180  83.221  94.362  1.00  0.00     0.002 A 
HETATM   12  C   LIG     1      89.980  82.280  93.685  1.00  0.00     0.000 A 
HETATM   13  C   LIG     1      90.776  82.685  92.597  1.00  0.00     0.002 A 
HETATM   14  C   LIG     1      90.771  84.032  92.183  1.00  0.00     0.021 A 
ENDBRANCH   8   9
ENDBRANCH   3   7
BRANCH   5  15
HETATM   15  S   LIG     1      84.456  83.833  89.352  1.00  0.00     0.139 S 
HETATM   16  O   LIG     1      83.549  84.916  88.938  1.00  0.00    -0.591 OA
HETATM   17  O   LIG     1      83.979  83.039  90.495  1.00  0.00    -0.591 OA
HETATM   18  O   LIG     1      85.016  83.043  88.245  1.00  0.00    -0.591 OA
ENDBRANCH   5  15
TORSDOF 3
ENDMDL
MODEL 5
REMARK VINA RESULT:      -0.0      6.246      7.293
REMARK  3 active torsions:
REMARK  status: ('A' for Active; 'I' for Inactive)
REMARK    1  A    between atoms: C_3  and  N_7 
REMARK    2  A    between atoms: C_5  and  S_15 
REMARK    3  A    between atoms: N_8  and  C_9 
ROOT
HETATM    1  C   LIG     1      91.239  95.051  95.745  1.00  0.00     0.022 A 
HETATM    2  C   LIG     1      91.639  96.392  95.592  1.00  0.00     0.015 A 
HETATM    3  C   LIG     1      90.509  94.406  94.724  1.00  0.00     0.103 A 
HETATM    4  C   LIG     1      90.152  95.123  93.558  1.00  0.00     0.022 A 
HETATM    5  C   LIG     1      91.302  97.093  94.416  1.00  0.00     0.104 A 
HETATM    6  C   LIG     1      90.552  96.464  93.402  1.00  0.00     0.015 A 
ENDROOT
BRANCH   3   7
HETATM    7  N   LIG     1      90.108  93.061  94.921  1.00  0.00    -0.148 NA
HETATM    8  N   LIG     1      90.703  92.105  94.359  1.00  0.00    -0.148 NA
BRANCH   8   9
HETATM    9  C   LIG     1      92.068  92.195  93.983  1.00  0.00     0.103 A 
HETATM   10  C   LIG     1      92.384  92.397  92.624  1.00  0.00     0.021 A 
HETATM   11  C   LIG     1      93.730  92.474  92.214  1.00  0.00     0.002 A 
HETATM   12  C   LIG     1      94.764  92.337  93.160  1.00  0.00     0.000 A 
HETATM   13  C   LIG     1      94.455  92.119  94.516  1.00  0.00     0.002 A 
HETATM   14  C   LIG     1      93.110  92.041  94.928  1.00  0.00     0.021 A 
ENDBRANCH   8   9
ENDBRANCH   3   7
BRANCH   5  15
HETATM   15  S   LIG     1      91.803  98.803  94.224  1.00  0.00     0.139 S 
HETATM   16  O   LIG     1      90.530  99.540  94.173  1.00  0.00    -0.591 OA
HETATM   17  O   LIG     1      92.564  98.808  92.965  1.00  0.00    -0.591 OA
HETATM   18  O   LIG     1      92.608  99.048  95.430  1.00  0.00    -0.591 OA
ENDBRANCH   5  15
TORSDOF 3
ENDMDL
MODEL 6
REMARK VINA RESULT:      -0.0     12.933     14.316
REMARK  3 active torsions:
REMARK  status: ('A' for Active; 'I' for Inactive)
REMARK    1  A    between atoms: C_3  and  N_7 
REMARK    2  A    between atoms: C_5  and  S_15 
REMARK    3  A    between atoms: N_8  and  C_9 
ROOT
HETATM    1  C   LIG     1      85.520  86.046  87.649  1.00  0.00     0.022 A 
HETATM    2  C   LIG     1      85.956  86.377  86.351  1.00  0.00     0.015 A 
HETATM    3  C   LIG     1      84.146  86.071  87.964  1.00  0.00     0.103 A 
HETATM    4  C   LIG     1      83.207  86.461  86.980  1.00  0.00     0.022 A 
HETATM    5  C   LIG     1      85.013  86.740  85.367  1.00  0.00     0.104 A 
HETATM    6  C   LIG     1      83.640  86.791  85.681  1.00  0.00     0.015 A 
ENDROOT
BRANCH   3   7
HETATM    7  N   LIG     1      83.745  85.749  89.285  1.00  0.00    -0.148 NA
HETATM    8  N   LIG     1      83.242  84.631  89.569  1.00  0.00    -0.148 NA
BRANCH   8   9
HETATM    9  C   LIG     1      83.536  83.468  88.813  1.00  0.00     0.103 A 
HETATM   10  C   LIG     1      82.572  82.992  87.900  1.00  0.00     0.021 A 
HETATM   11  C   LIG     1      82.825  81.830  87.146  1.00  0.00     0.002 A 
HETATM   12  C   LIG     1      84.037  81.132  87.310  1.00  0.00     0.000 A 
HETATM   13  C   LIG     1      84.996  81.593  88.232  1.00  0.00     0.002 A 
HETATM   14  C   LIG     1      84.745  82.755  88.988  1.00  0.00     0.021 A 
ENDBRANCH   8   9
ENDBRANCH   3   7
BRANCH   5  15
HETATM   15  S   LIG     1      85.568  87.170  83.719  1.00  0.00     0.139 S 
HETATM   16  O   LIG     1      85.195  88.587  83.579  1.00  0.00    -0.591 OA
HETATM   17  O   LIG     1      84.820  86.252  82.845  1.00  0.00    -0.591 OA
HETATM   18  O   LIG     1      87.016  86.917  83.781  1.00  0.00    -0.591 OA
ENDBRANCH   5  15
TORSDOF 3
ENDMDL
MODEL 7
REMARK VINA RESULT:      -0.0      6.924      8.837
REMARK  3 active torsions:
REMARK  status: ('A' for Active; 'I' for Inactive)
REMARK    1  A    between atoms: C_3  and  N_7 
REMARK    2  A    between atoms: C_5  and  S_15 
REMARK    3  A    between atoms: N_8  and  C_9 
ROOT
HETATM    1  C   LIG     1      98.186  91.438  93.539  1.00  0.00     0.022 A 
HETATM    2  C   LIG     1      97.784  90.260  94.197  1.00  0.00     0.015 A 
HETATM    3  C   LIG     1      98.762  91.372  92.254  1.00  0.00     0.103 A 
HETATM    4  C   LIG     1      98.967  90.114  91.640  1.00  0.00     0.022 A 
HETATM    5  C   LIG     1      97.966  89.011  93.570  1.00  0.00     0.104 A 
HETATM    6  C   LIG     1      98.565  88.934  92.296  1.00  0.00     0.015 A 
ENDROOT
BRANCH   3   7
HETATM    7  N   LIG     1      99.171  92.577  91.629  1.00  0.00    -0.148 NA
HETATM    8  N   LIG     1      98.494  93.108  90.712  1.00  0.00    -0.148 NA
BRANCH   8   9
HETATM    9  C   LIG     1      97.092  92.917  90.614  1.00  0.00     0.103 A 
HETATM   10  C   LIG     1      96.595  92.027  89.640  1.00  0.00     0.021 A 
HETATM   11  C   LIG     1      95.207  91.827  89.506  1.00  0.00     0.002 A 
HETATM   12  C   LIG     1      94.310  92.526  90.336  1.00  0.00     0.000 A 
HETATM   13  C   LIG     1      94.799  93.429  91.300  1.00  0.00     0.002 A 
HETATM   14  C   LIG     1      96.187  93.630  91.435  1.00  0.00     0.021 A 
ENDBRANCH   8   9
ENDBRANCH   3   7
BRANCH   5  15
HETATM   15  S   LIG     1      97.464  87.510  94.410  1.00  0.00     0.139 S 
HETATM   16  O   LIG     1      98.727  86.784  94.622  1.00  0.00    -0.591 OA
HETATM   17  O   LIG     1      96.540  86.867  93.462  1.00  0.00    -0.591 OA
HETATM   18  O   LIG     1      96.831  88.016  95.638  1.00  0.00    -0.591 OA
ENDBRANCH   5  15
TORSDOF 3
ENDMDL
MODEL 8
REMARK VINA RESULT:      -0.0      4.266      5.410
REMARK  3 active torsions:
REMARK  status: ('A' for Active; 'I' for Inactive)
REMARK    1  A    between atoms: C_3  and  N_7 
REMARK    2  A    between atoms: C_5  and  S_15 
REMARK    3  A    between atoms: N_8  and  C_9 
ROOT
HETATM    1  C   LIG     1      94.051  94.632  87.070  1.00  0.00     0.022 A 
HETATM    2  C   LIG     1      94.981  94.659  88.127  1.00  0.00     0.015 A 
HETATM    3  C   LIG     1      93.665  93.403  86.495  1.00  0.00     0.103 A 
HETATM    4  C   LIG     1      94.240  92.198  86.964  1.00  0.00     0.022 A 
HETATM    5  C   LIG     1      95.531  93.453  88.607  1.00  0.00     0.104 A 
HETATM    6  C   LIG     1      95.169  92.222  88.021  1.00  0.00     0.015 A 
ENDROOT
BRANCH   3   7
HETATM    7  N   LIG     1      92.740  93.416  85.421  1.00  0.00    -0.148 NA
HETATM    8  N   LIG     1      91.532  93.107  85.586  1.00  0.00    -0.148 NA
BRANCH   8   9
HETATM    9  C   LIG     1      90.884  93.274  86.837  1.00  0.00     0.103 A 
HETATM   10  C   LIG     1      90.659  92.137  87.640  1.00  0.00     0.021 A 
HETATM   11  C   LIG     1      90.003  92.265  88.880  1.00  0.00     0.002 A 
HETATM   12  C   LIG     1      89.559  93.529  89.316  1.00  0.00     0.000 A 
HETATM   13  C   LIG     1      89.765  94.665  88.509  1.00  0.00     0.002 A 
HETATM   14  C   LIG     1      90.420  94.538  87.269  1.00  0.00     0.021 A 
ENDBRANCH   8   9
ENDBRANCH   3   7
BRANCH   5  15
HETATM   15  S   LIG     1      96.720  93.487  89.946  1.00  0.00     0.139 S 
HETATM   16  O   LIG     1      97.958  92.982  89.331  1.00  0.00    -0.591 OA
HETATM   17  O   LIG     1      96.134  92.598  90.961  1.00  0.00    -0.591 OA
HETATM   18  O   LIG     1      96.755  94.909  90.320  1.00  0.00    -0.591 OA
ENDBRANCH   5  15
TORSDOF 3
ENDMDL
MODEL 9
REMARK VINA RESULT:      -0.0      4.445      5.821
REMARK  3 active torsions:
REMARK  status: ('A' for Active; 'I' for Inactive)
REMARK    1  A    between atoms: C_3  and  N_7 
REMARK    2  A    between atoms: C_5  and  S_15 
REMARK    3  A    between atoms: N_8  and  C_9 
ROOT
HETATM    1  C   LIG     1      92.688  93.654  88.522  1.00  0.00     0.022 A 
HETATM    2  C   LIG     1      91.983  92.450  88.717  1.00  0.00     0.015 A 
HETATM    3  C   LIG     1      93.844  93.930  89.281  1.00  0.00     0.103 A 
HETATM    4  C   LIG     1      94.274  93.009  90.265  1.00  0.00     0.022 A 
HETATM    5  C   LIG     1      92.432  91.525  89.680  1.00  0.00     0.104 A 
HETATM    6  C   LIG     1      93.572  91.805  90.462  1.00  0.00     0.015 A 
ENDROOT
BRANCH   3   7
HETATM    7  N   LIG     1      94.519  95.159  89.070  1.00  0.00    -0.148 NA
HETATM    8  N   LIG     1      95.588  95.221  88.411  1.00  0.00    -0.148 NA
BRANCH   8   9
HETATM    9  C   LIG     1      95.896  94.274  87.400  1.00  0.00     0.103 A 
HETATM   10  C   LIG     1      96.837  93.262  87.684  1.00  0.00     0.021 A 
HETATM   11  C   LIG     1      97.178  92.316  86.698  1.00  0.00     0.002 A 
HETATM   12  C   LIG     1      96.589  92.385  85.420  1.00  0.00     0.000 A 
HETATM   13  C   LIG     1      95.662  93.404  85.126  1.00  0.00     0.002 A 
HETATM   14  C   LIG     1      95.320  94.351  86.111  1.00  0.00     0.021 A 
ENDBRANCH   8   9
ENDBRANCH   3   7
BRANCH   5  15
HETATM   15  S   LIG     1      91.529  89.998  89.936  1.00  0.00     0.139 S 
HETATM   16  O   LIG     1      91.031  90.109  91.316  1.00  0.00    -0.591 OA
HETATM   17  O   LIG     1      92.544  88.951  89.734  1.00  0.00    -0.591 OA
HETATM   18  O   LIG     1      90.487  90.053  88.899  1.00  0.00    -0.591 OA
ENDBRANCH   5  15
TORSDOF 3
ENDMDL
