MODEL 1
REMARK VINA RESULT:       0.0      0.000      0.000
REMARK  5 active torsions:
REMARK  status: ('A' for Active; 'I' for Inactive)
REMARK    1  A    between atoms: C_2  and  C_8 
REMARK    2  A    between atoms: C_3  and  O_21 
REMARK    3  A    between atoms: C_5  and  O_19 
REMARK    4  A    between atoms: C_9  and  O_15 
REMARK    5  A    between atoms: C_12  and  O_17 
ROOT
HETATM    1  C   LIG     1      96.817  90.615  82.514  1.00  0.00     0.026 A 
HETATM    2  C   LIG     1      97.372  89.439  81.963  1.00  0.00     0.026 A 
HETATM    3  C   LIG     1      97.361  91.881  82.227  1.00  0.00     0.086 A 
HETATM    4  C   LIG     1      98.481  91.991  81.375  1.00  0.00     0.002 A 
HETATM    5  C   LIG     1      98.495  89.558  81.108  1.00  0.00     0.089 A 
HETATM    6  C   LIG     1      99.042  90.824  80.819  1.00  0.00     0.022 A 
HETATM    7  C   LIG     1      99.082  93.347  81.052  1.00  0.00     0.033 C 
ENDROOT
BRANCH   2   8
HETATM    8  C   LIG     1      96.779  88.127  82.291  1.00  0.00     0.026 A 
HETATM    9  C   LIG     1      97.225  87.425  83.433  1.00  0.00     0.026 A 
HETATM   10  C   LIG     1      96.677  86.174  83.779  1.00  0.00     0.086 A 
HETATM   11  C   LIG     1      95.664  85.605  82.980  1.00  0.00     0.002 A 
HETATM   12  C   LIG     1      95.062  84.258  83.337  1.00  0.00     0.033 C 
HETATM   13  C   LIG     1      95.211  86.297  81.839  1.00  0.00     0.022 A 
HETATM   14  C   LIG     1      95.763  87.548  81.494  1.00  0.00     0.089 A 
BRANCH  10  15
HETATM   15  O   LIG     1      97.135  85.526  84.889  1.00  0.00    -0.359 OA
HETATM   16  H   LIG     1      97.904  85.002  84.725  1.00  0.00     0.217 HD
ENDBRANCH  10  15
BRANCH  14  17
HETATM   17  O   LIG     1      95.305  88.182  80.375  1.00  0.00    -0.359 OA
HETATM   18  H   LIG     1      95.739  89.005  80.209  1.00  0.00     0.217 HD
ENDBRANCH  14  17
ENDBRANCH   2   8
BRANCH   5  19
HETATM   19  O   LIG     1      99.063  88.450  80.543  1.00  0.00    -0.359 OA
HETATM   20  H   LIG     1      98.759  88.284  79.663  1.00  0.00     0.217 HD
ENDBRANCH   5  19
BRANCH   3  21
HETATM   21  O   LIG     1      96.794  92.993  82.781  1.00  0.00    -0.359 OA
HETATM   22  H   LIG     1      97.418  93.539  83.235  1.00  0.00     0.217 HD
ENDBRANCH   3  21
TORSDOF 5
ENDMDL
MODEL 2
REMARK VINA RESULT:       0.0     15.620     17.324
REMARK  5 active torsions:
REMARK  status: ('A' for Active; 'I' for Inactive)
REMARK    1  A    between atoms: C_2  and  C_8 
REMARK    2  A    between atoms: C_3  and  O_21 
REMARK    3  A    between atoms: C_5  and  O_19 
REMARK    4  A    between atoms: C_9  and  O_15 
REMARK    5  A    between atoms: C_12  and  O_17 
ROOT
HETATM    1  C   LIG     1      85.175  93.325  93.276  1.00  0.00     0.026 A 
HETATM    2  C   LIG     1      85.204  94.671  92.849  1.00  0.00     0.026 A 
HETATM    3  C   LIG     1      84.507  92.950  94.456  1.00  0.00     0.086 A 
HETATM    4  C   LIG     1      83.850  93.926  95.237  1.00  0.00     0.002 A 
HETATM    5  C   LIG     1      84.543  95.645  93.637  1.00  0.00     0.089 A 
HETATM    6  C   LIG     1      83.872  95.272  94.819  1.00  0.00     0.022 A 
HETATM    7  C   LIG     1      83.123  93.541  96.512  1.00  0.00     0.033 C 
ENDROOT
BRANCH   2   8
HETATM    8  C   LIG     1      85.921  95.029  91.609  1.00  0.00     0.026 A 
HETATM    9  C   LIG     1      87.297  95.347  91.663  1.00  0.00     0.026 A 
HETATM   10  C   LIG     1      88.012  95.687  90.498  1.00  0.00     0.086 A 
HETATM   11  C   LIG     1      87.354  95.713  89.251  1.00  0.00     0.002 A 
HETATM   12  C   LIG     1      88.109  96.077  87.985  1.00  0.00     0.033 C 
HETATM   13  C   LIG     1      85.982  95.398  89.185  1.00  0.00     0.022 A 
HETATM   14  C   LIG     1      85.269  95.059  90.353  1.00  0.00     0.089 A 
BRANCH  10  15
HETATM   15  O   LIG     1      89.340  95.989  90.591  1.00  0.00    -0.359 OA
HETATM   16  H   LIG     1      89.510  96.918  90.611  1.00  0.00     0.217 HD
ENDBRANCH  10  15
BRANCH  14  17
HETATM   17  O   LIG     1      83.938  94.770  90.249  1.00  0.00    -0.359 OA
HETATM   18  H   LIG     1      83.757  94.048  89.666  1.00  0.00     0.217 HD
ENDBRANCH  14  17
ENDBRANCH   2   8
BRANCH   5  19
HETATM   19  O   LIG     1      84.534  96.959  93.261  1.00  0.00    -0.359 OA
HETATM   20  H   LIG     1      85.400  97.330  93.186  1.00  0.00     0.217 HD
ENDBRANCH   5  19
BRANCH   3  21
HETATM   21  O   LIG     1      84.504  91.637  94.833  1.00  0.00    -0.359 OA
HETATM   22  H   LIG     1      83.890  91.112  94.341  1.00  0.00     0.217 HD
ENDBRANCH   3  21
TORSDOF 5
ENDMDL
MODEL 3
REMARK VINA RESULT:       0.0     13.330     14.756
REMARK  5 active torsions:
REMARK  status: ('A' for Active; 'I' for Inactive)
REMARK    1  A    between atoms: C_2  and  C_8 
REMARK    2  A    between atoms: C_3  and  O_21 
REMARK    3  A    between atoms: C_5  and  O_19 
REMARK    4  A    between atoms: C_9  and  O_15 
REMARK    5  A    between atoms: C_12  and  O_17 
ROOT
HETATM    1  C   LIG     1      90.237  89.495  93.659  1.00  0.00     0.026 A 
HETATM    2  C   LIG     1      89.103  88.718  93.333  1.00  0.00     0.026 A 
HETATM    3  C   LIG     1      91.266  89.710  92.724  1.00  0.00     0.086 A 
HETATM    4  C   LIG     1      91.177  89.145  91.433  1.00  0.00     0.002 A 
HETATM    5  C   LIG     1      89.020  88.155  92.036  1.00  0.00     0.089 A 
HETATM    6  C   LIG     1      90.050  88.369  91.097  1.00  0.00     0.022 A 
HETATM    7  C   LIG     1      92.276  89.366  90.411  1.00  0.00     0.033 C 
ENDROOT
BRANCH   2   8
HETATM    8  C   LIG     1      88.045  88.508  94.342  1.00  0.00     0.026 A 
HETATM    9  C   LIG     1      88.141  87.421  95.238  1.00  0.00     0.026 A 
HETATM   10  C   LIG     1      87.153  87.194  96.216  1.00  0.00     0.086 A 
HETATM   11  C   LIG     1      86.046  88.063  96.312  1.00  0.00     0.002 A 
HETATM   12  C   LIG     1      84.971  87.835  97.360  1.00  0.00     0.033 C 
HETATM   13  C   LIG     1      85.941  89.152  95.424  1.00  0.00     0.022 A 
HETATM   14  C   LIG     1      86.931  89.374  94.445  1.00  0.00     0.089 A 
BRANCH  10  15
HETATM   15  O   LIG     1      87.279  86.132  97.064  1.00  0.00    -0.359 OA
HETATM   16  H   LIG     1      87.674  85.375  96.657  1.00  0.00     0.217 HD
ENDBRANCH  10  15
BRANCH  14  17
HETATM   17  O   LIG     1      86.788  90.434  93.595  1.00  0.00    -0.359 OA
HETATM   18  H   LIG     1      87.097  90.255  92.720  1.00  0.00     0.217 HD
ENDBRANCH  14  17
ENDBRANCH   2   8
BRANCH   5  19
HETATM   19  O   LIG     1      87.940  87.404  91.668  1.00  0.00    -0.359 OA
HETATM   20  H   LIG     1      88.157  86.502  91.486  1.00  0.00     0.217 HD
ENDBRANCH   5  19
BRANCH   3  21
HETATM   21  O   LIG     1      92.345  90.468  93.081  1.00  0.00    -0.359 OA
HETATM   22  H   LIG     1      92.298  90.781  93.972  1.00  0.00     0.217 HD
ENDBRANCH   3  21
TORSDOF 5
ENDMDL
MODEL 4
REMARK VINA RESULT:       0.0     10.005     12.293
REMARK  5 active torsions:
REMARK  status: ('A' for Active; 'I' for Inactive)
REMARK    1  A    between atoms: C_2  and  C_8 
REMARK    2  A    between atoms: C_3  and  O_21 
REMARK    3  A    between atoms: C_5  and  O_19 
REMARK    4  A    between atoms: C_9  and  O_15 
REMARK    5  A    between atoms: C_12  and  O_17 
ROOT
HETATM    1  C   LIG     1      89.814  91.051  89.314  1.00  0.00     0.026 A 
HETATM    2  C   LIG     1      89.992  92.321  89.906  1.00  0.00     0.026 A 
HETATM    3  C   LIG     1      89.133  90.021  89.990  1.00  0.00     0.086 A 
HETATM    4  C   LIG     1      88.615  90.248  91.283  1.00  0.00     0.002 A 
HETATM    5  C   LIG     1      89.468  92.541  91.204  1.00  0.00     0.089 A 
HETATM    6  C   LIG     1      88.786  91.511  91.883  1.00  0.00     0.022 A 
HETATM    7  C   LIG     1      87.877  89.151  92.028  1.00  0.00     0.033 C 
ENDROOT
BRANCH   2   8
HETATM    8  C   LIG     1      90.717  93.376  89.171  1.00  0.00     0.026 A 
HETATM    9  C   LIG     1      92.121  93.473  89.291  1.00  0.00     0.026 A 
HETATM   10  C   LIG     1      92.845  94.463  88.599  1.00  0.00     0.086 A 
HETATM   11  C   LIG     1      92.166  95.378  87.767  1.00  0.00     0.002 A 
HETATM   12  C   LIG     1      92.929  96.452  87.012  1.00  0.00     0.033 C 
HETATM   13  C   LIG     1      90.766  95.291  87.639  1.00  0.00     0.022 A 
HETATM   14  C   LIG     1      90.044  94.299  88.334  1.00  0.00     0.089 A 
BRANCH  10  15
HETATM   15  O   LIG     1      94.201  94.526  88.741  1.00  0.00    -0.359 OA
HETATM   16  H   LIG     1      94.669  94.104  88.036  1.00  0.00     0.217 HD
ENDBRANCH  10  15
BRANCH  14  17
HETATM   17  O   LIG     1      88.687  94.253  88.193  1.00  0.00    -0.359 OA
HETATM   18  H   LIG     1      88.320  93.404  88.385  1.00  0.00     0.217 HD
ENDBRANCH  14  17
ENDBRANCH   2   8
BRANCH   5  19
HETATM   19  O   LIG     1      89.606  93.755  91.816  1.00  0.00    -0.359 OA
HETATM   20  H   LIG     1      89.236  94.468  91.318  1.00  0.00     0.217 HD
ENDBRANCH   5  19
BRANCH   3  21
HETATM   21  O   LIG     1      88.984  88.808  89.381  1.00  0.00    -0.359 OA
HETATM   22  H   LIG     1      88.937  88.870  88.439  1.00  0.00     0.217 HD
ENDBRANCH   3  21
TORSDOF 5
ENDMDL
MODEL 5
REMARK VINA RESULT:       0.0     11.385     13.605
REMARK  5 active torsions:
REMARK  status: ('A' for Active; 'I' for Inactive)
REMARK    1  A    between atoms: C_2  and  C_8 
REMARK    2  A    between atoms: C_3  and  O_21 
REMARK    3  A    between atoms: C_5  and  O_19 
REMARK    4  A    between atoms: C_9  and  O_15 
REMARK    5  A    between atoms: C_12  and  O_17 
ROOT
HETATM    1  C   LIG     1      93.016  87.740  92.133  1.00  0.00     0.026 A 
HETATM    2  C   LIG     1      92.595  87.270  93.396  1.00  0.00     0.026 A 
HETATM    3  C   LIG     1      93.323  86.847  91.089  1.00  0.00     0.086 A 
HETATM    4  C   LIG     1      93.212  85.455  91.296  1.00  0.00     0.002 A 
HETATM    5  C   LIG     1      92.486  85.872  93.596  1.00  0.00     0.089 A 
HETATM    6  C   LIG     1      92.792  84.975  92.552  1.00  0.00     0.022 A 
HETATM    7  C   LIG     1      93.537  84.476  90.183  1.00  0.00     0.033 C 
ENDROOT
BRANCH   2   8
HETATM    8  C   LIG     1      92.288  88.236  94.471  1.00  0.00     0.026 A 
HETATM    9  C   LIG     1      93.319  88.677  95.330  1.00  0.00     0.026 A 
HETATM   10  C   LIG     1      93.062  89.601  96.361  1.00  0.00     0.086 A 
HETATM   11  C   LIG     1      91.757  90.104  96.546  1.00  0.00     0.002 A 
HETATM   12  C   LIG     1      91.462  91.101  97.652  1.00  0.00     0.033 C 
HETATM   13  C   LIG     1      90.721  89.671  95.695  1.00  0.00     0.022 A 
HETATM   14  C   LIG     1      90.981  88.744  94.665  1.00  0.00     0.089 A 
BRANCH  10  15
HETATM   15  O   LIG     1      94.085  90.003  97.171  1.00  0.00    -0.359 OA
HETATM   16  H   LIG     1      93.962  90.873  97.522  1.00  0.00     0.217 HD
ENDBRANCH  10  15
BRANCH  14  17
HETATM   17  O   LIG     1      89.948  88.341  93.868  1.00  0.00    -0.359 OA
HETATM   18  H   LIG     1      89.877  88.840  93.068  1.00  0.00     0.217 HD
ENDBRANCH  14  17
ENDBRANCH   2   8
BRANCH   5  19
HETATM   19  O   LIG     1      92.074  85.368  94.798  1.00  0.00    -0.359 OA
HETATM   20  H   LIG     1      92.129  84.426  94.845  1.00  0.00     0.217 HD
ENDBRANCH   5  19
BRANCH   3  21
HETATM   21  O   LIG     1      93.727  87.344  89.883  1.00  0.00    -0.359 OA
HETATM   22  H   LIG     1      94.428  87.973  89.958  1.00  0.00     0.217 HD
ENDBRANCH   3  21
TORSDOF 5
ENDMDL
MODEL 6
REMARK VINA RESULT:       0.0     12.274     14.435
REMARK  5 active torsions:
REMARK  status: ('A' for Active; 'I' for Inactive)
REMARK    1  A    between atoms: C_2  and  C_8 
REMARK    2  A    between atoms: C_3  and  O_21 
REMARK    3  A    between atoms: C_5  and  O_19 
REMARK    4  A    between atoms: C_9  and  O_15 
REMARK    5  A    between atoms: C_12  and  O_17 
ROOT
HETATM    1  C   LIG     1      92.446  92.502  92.242  1.00  0.00     0.026 A 
HETATM    2  C   LIG     1      92.565  93.123  93.505  1.00  0.00     0.026 A 
HETATM    3  C   LIG     1      92.028  91.163  92.125  1.00  0.00     0.086 A 
HETATM    4  C   LIG     1      91.720  90.417  93.283  1.00  0.00     0.002 A 
HETATM    5  C   LIG     1      92.253  92.368  94.662  1.00  0.00     0.089 A 
HETATM    6  C   LIG     1      91.834  91.027  94.548  1.00  0.00     0.022 A 
HETATM    7  C   LIG     1      91.266  88.972  93.178  1.00  0.00     0.033 C 
ENDROOT
BRANCH   2   8
HETATM    8  C   LIG     1      93.013  94.528  93.590  1.00  0.00     0.026 A 
HETATM    9  C   LIG     1      94.393  94.818  93.668  1.00  0.00     0.026 A 
HETATM   10  C   LIG     1      94.855  96.146  93.745  1.00  0.00     0.086 A 
HETATM   11  C   LIG     1      93.933  97.213  93.741  1.00  0.00     0.002 A 
HETATM   12  C   LIG     1      94.412  98.651  93.822  1.00  0.00     0.033 C 
HETATM   13  C   LIG     1      92.554  96.936  93.662  1.00  0.00     0.022 A 
HETATM   14  C   LIG     1      92.094  95.605  93.588  1.00  0.00     0.089 A 
BRANCH  10  15
HETATM   15  O   LIG     1      96.197  96.386  93.821  1.00  0.00    -0.359 OA
HETATM   16  H   LIG     1      96.550  96.255  94.688  1.00  0.00     0.217 HD
ENDBRANCH  10  15
BRANCH  14  17
HETATM   17  O   LIG     1      90.749  95.376  93.523  1.00  0.00    -0.359 OA
HETATM   18  H   LIG     1      90.524  94.459  93.555  1.00  0.00     0.217 HD
ENDBRANCH  14  17
ENDBRANCH   2   8
BRANCH   5  19
HETATM   19  O   LIG     1      92.344  92.926  95.906  1.00  0.00    -0.359 OA
HETATM   20  H   LIG     1      92.043  93.822  95.935  1.00  0.00     0.217 HD
ENDBRANCH   5  19
BRANCH   3  21
HETATM   21  O   LIG     1      91.927  90.601  90.885  1.00  0.00    -0.359 OA
HETATM   22  H   LIG     1      91.032  90.451  90.619  1.00  0.00     0.217 HD
ENDBRANCH   3  21
TORSDOF 5
ENDMDL
MODEL 7
REMARK VINA RESULT:       0.0     11.123     13.816
REMARK  5 active torsions:
REMARK  status: ('A' for Active; 'I' for Inactive)
REMARK    1  A    between atoms: C_2  and  C_8 
REMARK    2  A    between atoms: C_3  and  O_21 
REMARK    3  A    between atoms: C_5  and  O_19 
REMARK    4  A    between atoms: C_9  and  O_15 
REMARK    5  A    between atoms: C_12  and  O_17 
ROOT
HETATM    1  C   LIG     1      85.795  84.192  85.387  1.00  0.00     0.026 A 
HETATM    2  C   LIG     1      85.793  84.616  86.733  1.00  0.00     0.026 A 
HETATM    3  C   LIG     1      86.319  85.008  84.366  1.00  0.00     0.086 A 
HETATM    4  C   LIG     1      86.853  86.276  84.682  1.00  0.00     0.002 A 
HETATM    5  C   LIG     1      86.333  85.889  87.042  1.00  0.00     0.089 A 
HETATM    6  C   LIG     1      86.857  86.709  86.023  1.00  0.00     0.022 A 
HETATM    7  C   LIG     1      87.422  87.171  83.596  1.00  0.00     0.033 C 
ENDROOT
BRANCH   2   8
HETATM    8  C   LIG     1      85.231  83.735  87.777  1.00  0.00     0.026 A 
HETATM    9  C   LIG     1      83.853  83.806  88.082  1.00  0.00     0.026 A 
HETATM   10  C   LIG     1      83.283  82.977  89.068  1.00  0.00     0.086 A 
HETATM   11  C   LIG     1      84.090  82.055  89.766  1.00  0.00     0.002 A 
HETATM   12  C   LIG     1      83.493  81.153  90.831  1.00  0.00     0.033 C 
HETATM   13  C   LIG     1      85.465  81.976  89.469  1.00  0.00     0.022 A 
HETATM   14  C   LIG     1      86.034  82.808  88.484  1.00  0.00     0.089 A 
BRANCH  10  15
HETATM   15  O   LIG     1      81.948  83.075  89.336  1.00  0.00    -0.359 OA
HETATM   16  H   LIG     1      81.729  83.824  89.869  1.00  0.00     0.217 HD
ENDBRANCH  10  15
BRANCH  14  17
HETATM   17  O   LIG     1      87.373  82.709  88.232  1.00  0.00    -0.359 OA
HETATM   18  H   LIG     1      87.866  83.456  88.535  1.00  0.00     0.217 HD
ENDBRANCH  14  17
ENDBRANCH   2   8
BRANCH   5  19
HETATM   19  O   LIG     1      86.362  86.341  88.331  1.00  0.00    -0.359 OA
HETATM   20  H   LIG     1      87.237  86.509  88.647  1.00  0.00     0.217 HD
ENDBRANCH   5  19
BRANCH   3  21
HETATM   21  O   LIG     1      86.300  84.559  83.076  1.00  0.00    -0.359 OA
HETATM   22  H   LIG     1      85.941  83.689  82.993  1.00  0.00     0.217 HD
ENDBRANCH   3  21
TORSDOF 5
ENDMDL
MODEL 8
REMARK VINA RESULT:       0.0      6.823      8.327
REMARK  5 active torsions:
REMARK  status: ('A' for Active; 'I' for Inactive)
REMARK    1  A    between atoms: C_2  and  C_8 
REMARK    2  A    between atoms: C_3  and  O_21 
REMARK    3  A    between atoms: C_5  and  O_19 
REMARK    4  A    between atoms: C_9  and  O_15 
REMARK    5  A    between atoms: C_12  and  O_17 
ROOT
HETATM    1  C   LIG     1      89.591  91.442  84.133  1.00  0.00     0.026 A 
HETATM    2  C   LIG     1      90.221  92.215  83.133  1.00  0.00     0.026 A 
HETATM    3  C   LIG     1      88.563  91.980  84.930  1.00  0.00     0.086 A 
HETATM    4  C   LIG     1      88.144  93.314  84.735  1.00  0.00     0.002 A 
HETATM    5  C   LIG     1      89.793  93.552  82.943  1.00  0.00     0.089 A 
HETATM    6  C   LIG     1      88.764  94.093  83.738  1.00  0.00     0.022 A 
HETATM    7  C   LIG     1      87.036  93.911  85.583  1.00  0.00     0.033 C 
ENDROOT
BRANCH   2   8
HETATM    8  C   LIG     1      91.301  91.620  82.320  1.00  0.00     0.026 A 
HETATM    9  C   LIG     1      92.637  91.693  82.773  1.00  0.00     0.026 A 
HETATM   10  C   LIG     1      93.691  91.132  82.026  1.00  0.00     0.086 A 
HETATM   11  C   LIG     1      93.419  90.481  80.804  1.00  0.00     0.002 A 
HETATM   12  C   LIG     1      94.541  89.869  79.986  1.00  0.00     0.033 C 
HETATM   13  C   LIG     1      92.089  90.401  80.344  1.00  0.00     0.022 A 
HETATM   14  C   LIG     1      91.037  90.966  81.093  1.00  0.00     0.089 A 
BRANCH  10  15
HETATM   15  O   LIG     1      94.969  91.224  82.496  1.00  0.00    -0.359 OA
HETATM   16  H   LIG     1      95.619  90.964  81.860  1.00  0.00     0.217 HD
ENDBRANCH  10  15
BRANCH  14  17
HETATM   17  O   LIG     1      89.763  90.877  80.607  1.00  0.00    -0.359 OA
HETATM   18  H   LIG     1      89.342  91.718  80.510  1.00  0.00     0.217 HD
ENDBRANCH  14  17
ENDBRANCH   2   8
BRANCH   5  19
HETATM   19  O   LIG     1      90.365  94.338  81.981  1.00  0.00    -0.359 OA
HETATM   20  H   LIG     1      89.746  94.909  81.551  1.00  0.00     0.217 HD
ENDBRANCH   5  19
BRANCH   3  21
HETATM   21  O   LIG     1      87.982  91.198  85.887  1.00  0.00    -0.359 OA
HETATM   22  H   LIG     1      87.817  90.315  85.593  1.00  0.00     0.217 HD
ENDBRANCH   3  21
TORSDOF 5
ENDMDL
MODEL 9
REMARK VINA RESULT:       0.0      6.355      8.766
REMARK  5 active torsions:
REMARK  status: ('A' for Active; 'I' for Inactive)
REMARK    1  A    between atoms: C_2  and  C_8 
REMARK    2  A    between atoms: C_3  and  O_21 
REMARK    3  A    between atoms: C_5  and  O_19 
REMARK    4  A    between atoms: C_9  and  O_15 
REMARK    5  A    between atoms: C_12  and  O_17 
ROOT
HETATM    1  C   LIG     1      92.421  87.445  89.104  1.00  0.00     0.026 A 
HETATM    2  C   LIG     1      92.345  86.401  88.156  1.00  0.00     0.026 A 
HETATM    3  C   LIG     1      91.291  88.221  89.424  1.00  0.00     0.086 A 
HETATM    4  C   LIG     1      90.055  87.962  88.792  1.00  0.00     0.002 A 
HETATM    5  C   LIG     1      91.101  86.146  87.528  1.00  0.00     0.089 A 
HETATM    6  C   LIG     1      89.968  86.922  87.846  1.00  0.00     0.022 A 
HETATM    7  C   LIG     1      88.825  88.787  89.124  1.00  0.00     0.033 C 
ENDROOT
BRANCH   2   8
HETATM    8  C   LIG     1      93.552  85.611  87.840  1.00  0.00     0.026 A 
HETATM    9  C   LIG     1      94.427  86.048  86.821  1.00  0.00     0.026 A 
HETATM   10  C   LIG     1      95.590  85.322  86.498  1.00  0.00     0.086 A 
HETATM   11  C   LIG     1      95.897  84.138  87.200  1.00  0.00     0.002 A 
HETATM   12  C   LIG     1      97.147  83.342  86.866  1.00  0.00     0.033 C 
HETATM   13  C   LIG     1      95.033  83.692  88.219  1.00  0.00     0.022 A 
HETATM   14  C   LIG     1      93.868  84.420  88.539  1.00  0.00     0.089 A 
BRANCH  10  15
HETATM   15  O   LIG     1      96.410  85.776  85.506  1.00  0.00    -0.359 OA
HETATM   16  H   LIG     1      96.104  86.576  85.106  1.00  0.00     0.217 HD
ENDBRANCH  10  15
BRANCH  14  17
HETATM   17  O   LIG     1      93.050  83.951  89.526  1.00  0.00    -0.359 OA
HETATM   18  H   LIG     1      92.133  83.981  89.297  1.00  0.00     0.217 HD
ENDBRANCH  14  17
ENDBRANCH   2   8
BRANCH   5  19
HETATM   19  O   LIG     1      90.975  85.141  86.610  1.00  0.00    -0.359 OA
HETATM   20  H   LIG     1      90.223  84.589  86.764  1.00  0.00     0.217 HD
ENDBRANCH   5  19
BRANCH   3  21
HETATM   21  O   LIG     1      91.408  89.222  90.346  1.00  0.00    -0.359 OA
HETATM   22  H   LIG     1      91.595  90.063  89.957  1.00  0.00     0.217 HD
ENDBRANCH   3  21
TORSDOF 5
ENDMDL
