MODEL 1
REMARK VINA RESULT:      -0.0      0.000      0.000
REMARK  5 active torsions:
REMARK  status: ('A' for Active; 'I' for Inactive)
REMARK    1  A    between atoms: C_1  and  N_20 
REMARK    2  A    between atoms: C_1  and  C_8 
REMARK    3  A    between atoms: C_1  and  C_2 
REMARK    4  A    between atoms: C_9  and  O_18 
REMARK    5  A    between atoms: N_20  and  C_22 
ROOT
HETATM    1  C   LIG     1      85.066  89.076  89.185  1.00  0.00     0.060 C 
ENDROOT
BRANCH   1   2
HETATM    2  N   LIG     1      85.690  88.634  90.436  1.00  0.00    -0.340 N 
HETATM    3  H   LIG     1      86.618  88.239  90.370  1.00  0.00     0.167 HD
BRANCH   2   4
HETATM    4  C   LIG     1      85.076  88.680  91.699  1.00  0.00     0.118 A 
HETATM    5  C   LIG     1      84.160  87.677  92.083  1.00  0.00     0.031 A 
HETATM    6  C   LIG     1      83.555  87.730  93.357  1.00  0.00    -0.017 A 
HETATM    7  C   LIG     1      83.884  88.789  94.230  1.00  0.00     0.014 A 
HETATM    8  C   LIG     1      82.573  86.659  93.786  1.00  0.00     0.031 C 
HETATM    9  C   LIG     1      84.804  89.766  93.802  1.00  0.00     0.073 A 
HETATM   10  N   LIG     1      85.356  89.675  92.574  1.00  0.00    -0.339 N 
HETATM   11  H   LIG     1      86.015  90.401  92.288  1.00  0.00     0.167 HD
ENDBRANCH   2   4
ENDBRANCH   1   2
BRANCH   1  12
HETATM   12  C   LIG     1      83.871  90.034  89.324  1.00  0.00     0.039 A 
HETATM   13  C   LIG     1      82.555  89.611  89.028  1.00  0.00     0.004 A 
HETATM   14  C   LIG     1      81.471  90.492  89.164  1.00  0.00     0.002 A 
HETATM   15  C   LIG     1      81.686  91.812  89.602  1.00  0.00     0.020 A 
HETATM   16  C   LIG     1      80.592  92.692  89.737  1.00  0.00     0.003 A 
HETATM   17  C   LIG     1      82.995  92.273  89.911  1.00  0.00     0.103 A 
HETATM   18  C   LIG     1      80.831  94.006  90.176  1.00  0.00     0.021 A 
HETATM   19  C   LIG     1      82.155  94.383  90.460  1.00  0.00     0.099 A 
HETATM   20  N   LIG     1      83.204  93.545  90.332  1.00  0.00    -0.242 NA
HETATM   21  C   LIG     1      84.079  91.369  89.765  1.00  0.00     0.108 A 
BRANCH  21  22
HETATM   22  O   LIG     1      85.347  91.803  90.054  1.00  0.00    -0.357 OA
HETATM   23  H   LIG     1      85.954  91.739  89.335  1.00  0.00     0.217 HD
ENDBRANCH  21  22
ENDBRANCH   1  12
BRANCH   1  24
HETATM   24  C   LIG     1      84.868  87.961  88.154  1.00  0.00     0.016 A 
HETATM   25  C   LIG     1      85.012  88.263  86.782  1.00  0.00     0.001 A 
HETATM   26  C   LIG     1      84.844  87.260  85.807  1.00  0.00     0.000 A 
HETATM   27  C   LIG     1      84.532  85.944  86.197  1.00  0.00     0.000 A 
HETATM   28  C   LIG     1      84.387  85.632  87.562  1.00  0.00     0.000 A 
HETATM   29  C   LIG     1      84.554  86.635  88.537  1.00  0.00     0.001 A 
ENDBRANCH   1  24
TORSDOF 5
ENDMDL
MODEL 2
REMARK VINA RESULT:      -0.0      7.199      9.546
REMARK  5 active torsions:
REMARK  status: ('A' for Active; 'I' for Inactive)
REMARK    1  A    between atoms: C_1  and  N_20 
REMARK    2  A    between atoms: C_1  and  C_8 
REMARK    3  A    between atoms: C_1  and  C_2 
REMARK    4  A    between atoms: C_9  and  O_18 
REMARK    5  A    between atoms: N_20  and  C_22 
ROOT
HETATM    1  C   LIG     1      90.781  93.602  90.636  1.00  0.00     0.060 C 
ENDROOT
BRANCH   1   2
HETATM    2  N   LIG     1      90.412  92.255  90.190  1.00  0.00    -0.340 N 
HETATM    3  H   LIG     1      90.376  92.097  89.193  1.00  0.00     0.167 HD
BRANCH   2   4
HETATM    4  C   LIG     1      90.064  91.194  91.045  1.00  0.00     0.118 A 
HETATM    5  C   LIG     1      88.763  91.112  91.585  1.00  0.00     0.031 A 
HETATM    6  C   LIG     1      88.424  90.037  92.435  1.00  0.00    -0.017 A 
HETATM    7  C   LIG     1      89.397  89.059  92.727  1.00  0.00     0.014 A 
HETATM    8  C   LIG     1      87.030  89.932  93.020  1.00  0.00     0.031 C 
HETATM    9  C   LIG     1      90.682  89.184  92.164  1.00  0.00     0.073 A 
HETATM   10  N   LIG     1      90.962  90.230  91.357  1.00  0.00    -0.339 N 
HETATM   11  H   LIG     1      91.903  90.298  90.968  1.00  0.00     0.167 HD
ENDBRANCH   2   4
ENDBRANCH   1   2
BRANCH   1  12
HETATM   12  C   LIG     1      91.237  93.732  92.099  1.00  0.00     0.039 A 
HETATM   13  C   LIG     1      90.430  94.381  93.062  1.00  0.00     0.004 A 
HETATM   14  C   LIG     1      90.852  94.489  94.397  1.00  0.00     0.002 A 
HETATM   15  C   LIG     1      92.089  93.946  94.790  1.00  0.00     0.020 A 
HETATM   16  C   LIG     1      92.508  94.057  96.132  1.00  0.00     0.003 A 
HETATM   17  C   LIG     1      92.927  93.284  93.850  1.00  0.00     0.103 A 
HETATM   18  C   LIG     1      93.748  93.508  96.503  1.00  0.00     0.021 A 
HETATM   19  C   LIG     1      94.516  92.870  95.513  1.00  0.00     0.099 A 
HETATM   20  N   LIG     1      94.120  92.762  94.228  1.00  0.00    -0.242 NA
HETATM   21  C   LIG     1      92.485  93.187  92.506  1.00  0.00     0.108 A 
BRANCH  21  22
HETATM   22  O   LIG     1      93.286  92.557  91.589  1.00  0.00    -0.357 OA
HETATM   23  H   LIG     1      92.956  91.725  91.289  1.00  0.00     0.217 HD
ENDBRANCH  21  22
ENDBRANCH   1  12
BRANCH   1  24
HETATM   24  C   LIG     1      89.823  94.702  90.170  1.00  0.00     0.016 A 
HETATM   25  C   LIG     1      90.346  95.974  89.844  1.00  0.00     0.001 A 
HETATM   26  C   LIG     1      89.495  97.006  89.406  1.00  0.00     0.000 A 
HETATM   27  C   LIG     1      88.111  96.776  89.287  1.00  0.00     0.000 A 
HETATM   28  C   LIG     1      87.580  95.512  89.608  1.00  0.00     0.000 A 
HETATM   29  C   LIG     1      88.431  94.479  90.048  1.00  0.00     0.001 A 
ENDBRANCH   1  24
TORSDOF 5
ENDMDL
MODEL 3
REMARK VINA RESULT:      -0.0      3.810      5.630
REMARK  5 active torsions:
REMARK  status: ('A' for Active; 'I' for Inactive)
REMARK    1  A    between atoms: C_1  and  N_20 
REMARK    2  A    between atoms: C_1  and  C_8 
REMARK    3  A    between atoms: C_1  and  C_2 
REMARK    4  A    between atoms: C_9  and  O_18 
REMARK    5  A    between atoms: N_20  and  C_22 
ROOT
HETATM    1  C   LIG     1      87.877  91.108  89.573  1.00  0.00     0.060 C 
ENDROOT
BRANCH   1   2
HETATM    2  N   LIG     1      89.231  90.555  89.457  1.00  0.00    -0.340 N 
HETATM    3  H   LIG     1      89.886  91.068  88.885  1.00  0.00     0.167 HD
BRANCH   2   4
HETATM    4  C   LIG     1      89.658  89.352  90.044  1.00  0.00     0.118 A 
HETATM    5  C   LIG     1      89.360  88.116  89.432  1.00  0.00     0.031 A 
HETATM    6  C   LIG     1      89.802  86.915  90.026  1.00  0.00    -0.017 A 
HETATM    7  C   LIG     1      90.541  86.974  91.227  1.00  0.00     0.014 A 
HETATM    8  C   LIG     1      89.494  85.579  89.380  1.00  0.00     0.031 C 
HETATM    9  C   LIG     1      90.814  88.231  91.800  1.00  0.00     0.073 A 
HETATM   10  N   LIG     1      90.370  89.354  91.196  1.00  0.00    -0.339 N 
HETATM   11  H   LIG     1      90.577  90.251  91.637  1.00  0.00     0.167 HD
ENDBRANCH   2   4
ENDBRANCH   1   2
BRANCH   1  12
HETATM   12  C   LIG     1      87.027  90.584  90.742  1.00  0.00     0.039 A 
HETATM   13  C   LIG     1      85.918  89.736  90.518  1.00  0.00     0.004 A 
HETATM   14  C   LIG     1      85.152  89.257  91.593  1.00  0.00     0.002 A 
HETATM   15  C   LIG     1      85.486  89.618  92.911  1.00  0.00     0.020 A 
HETATM   16  C   LIG     1      84.713  89.133  93.987  1.00  0.00     0.003 A 
HETATM   17  C   LIG     1      86.595  90.467  93.176  1.00  0.00     0.103 A 
HETATM   18  C   LIG     1      85.064  89.507  95.296  1.00  0.00     0.021 A 
HETATM   19  C   LIG     1      86.175  90.350  95.472  1.00  0.00     0.099 A 
HETATM   20  N   LIG     1      86.917  90.817  94.446  1.00  0.00    -0.242 NA
HETATM   21  C   LIG     1      87.356  90.943  92.077  1.00  0.00     0.108 A 
BRANCH  21  22
HETATM   22  O   LIG     1      88.424  91.768  92.319  1.00  0.00    -0.357 OA
HETATM   23  H   LIG     1      89.251  91.320  92.406  1.00  0.00     0.217 HD
ENDBRANCH  21  22
ENDBRANCH   1  12
BRANCH   1  24
HETATM   24  C   LIG     1      87.127  91.217  88.242  1.00  0.00     0.016 A 
HETATM   25  C   LIG     1      86.254  92.308  88.034  1.00  0.00     0.001 A 
HETATM   26  C   LIG     1      85.555  92.442  86.820  1.00  0.00     0.000 A 
HETATM   27  C   LIG     1      85.723  91.487  85.800  1.00  0.00     0.000 A 
HETATM   28  C   LIG     1      86.592  90.396  85.997  1.00  0.00     0.000 A 
HETATM   29  C   LIG     1      87.291  90.261  87.211  1.00  0.00     0.001 A 
ENDBRANCH   1  24
TORSDOF 5
ENDMDL
MODEL 4
REMARK VINA RESULT:      -0.0      3.566      6.678
REMARK  5 active torsions:
REMARK  status: ('A' for Active; 'I' for Inactive)
REMARK    1  A    between atoms: C_1  and  N_20 
REMARK    2  A    between atoms: C_1  and  C_8 
REMARK    3  A    between atoms: C_1  and  C_2 
REMARK    4  A    between atoms: C_9  and  O_18 
REMARK    5  A    between atoms: N_20  and  C_22 
ROOT
HETATM    1  C   LIG     1      86.476  90.130  89.075  1.00  0.00     0.060 C 
ENDROOT
BRANCH   1   2
HETATM    2  N   LIG     1      87.872  90.573  89.143  1.00  0.00    -0.340 N 
HETATM    3  H   LIG     1      88.033  91.567  89.230  1.00  0.00     0.167 HD
BRANCH   2   4
HETATM    4  C   LIG     1      88.988  89.725  89.050  1.00  0.00     0.118 A 
HETATM    5  C   LIG     1      89.442  89.280  87.789  1.00  0.00     0.031 A 
HETATM    6  C   LIG     1      90.569  88.434  87.709  1.00  0.00    -0.017 A 
HETATM    7  C   LIG     1      91.227  88.051  88.897  1.00  0.00     0.014 A 
HETATM    8  C   LIG     1      91.071  87.951  86.363  1.00  0.00     0.031 C 
HETATM    9  C   LIG     1      90.737  88.521  90.131  1.00  0.00     0.073 A 
HETATM   10  N   LIG     1      89.655  89.327  90.160  1.00  0.00    -0.339 N 
HETATM   11  H   LIG     1      89.318  89.648  91.069  1.00  0.00     0.167 HD
ENDBRANCH   2   4
ENDBRANCH   1   2
BRANCH   1  12
HETATM   12  C   LIG     1      86.222  88.641  89.361  1.00  0.00     0.039 A 
HETATM   13  C   LIG     1      85.833  87.754  88.332  1.00  0.00     0.004 A 
HETATM   14  C   LIG     1      85.610  86.394  88.602  1.00  0.00     0.002 A 
HETATM   15  C   LIG     1      85.775  85.900  89.909  1.00  0.00     0.020 A 
HETATM   16  C   LIG     1      85.549  84.533  90.174  1.00  0.00     0.003 A 
HETATM   17  C   LIG     1      86.166  86.761  90.970  1.00  0.00     0.103 A 
HETATM   18  C   LIG     1      85.719  84.061  91.488  1.00  0.00     0.021 A 
HETATM   19  C   LIG     1      86.108  84.978  92.479  1.00  0.00     0.099 A 
HETATM   20  N   LIG     1      86.324  86.286  92.231  1.00  0.00    -0.242 NA
HETATM   21  C   LIG     1      86.385  88.132  90.678  1.00  0.00     0.108 A 
BRANCH  21  22
HETATM   22  O   LIG     1      86.757  88.974  91.694  1.00  0.00    -0.357 OA
HETATM   23  H   LIG     1      87.455  89.570  91.471  1.00  0.00     0.217 HD
ENDBRANCH  21  22
ENDBRANCH   1  12
BRANCH   1  24
HETATM   24  C   LIG     1      85.697  90.688  87.881  1.00  0.00     0.016 A 
HETATM   25  C   LIG     1      84.329  91.002  88.040  1.00  0.00     0.001 A 
HETATM   26  C   LIG     1      83.585  91.523  86.965  1.00  0.00     0.000 A 
HETATM   27  C   LIG     1      84.203  91.738  85.719  1.00  0.00     0.000 A 
HETATM   28  C   LIG     1      85.566  91.431  85.549  1.00  0.00     0.000 A 
HETATM   29  C   LIG     1      86.311  90.908  86.625  1.00  0.00     0.001 A 
ENDBRANCH   1  24
TORSDOF 5
ENDMDL
MODEL 5
REMARK VINA RESULT:      -0.0      9.968     12.176
REMARK  5 active torsions:
REMARK  status: ('A' for Active; 'I' for Inactive)
REMARK    1  A    between atoms: C_1  and  N_20 
REMARK    2  A    between atoms: C_1  and  C_8 
REMARK    3  A    between atoms: C_1  and  C_2 
REMARK    4  A    between atoms: C_9  and  O_18 
REMARK    5  A    between atoms: N_20  and  C_22 
ROOT
HETATM    1  C   LIG     1      91.124  95.020  92.129  1.00  0.00     0.060 C 
ENDROOT
BRANCH   1   2
HETATM    2  N   LIG     1      91.507  95.196  93.534  1.00  0.00    -0.340 N 
HETATM    3  H   LIG     1      90.826  94.928  94.230  1.00  0.00     0.167 HD
BRANCH   2   4
HETATM    4  C   LIG     1      92.724  95.746  93.970  1.00  0.00     0.118 A 
HETATM    5  C   LIG     1      92.903  97.146  93.997  1.00  0.00     0.031 A 
HETATM    6  C   LIG     1      94.127  97.687  94.445  1.00  0.00    -0.017 A 
HETATM    7  C   LIG     1      95.152  96.813  94.864  1.00  0.00     0.014 A 
HETATM    8  C   LIG     1      94.336  99.188  94.482  1.00  0.00     0.031 C 
HETATM    9  C   LIG     1      94.925  95.424  94.821  1.00  0.00     0.073 A 
HETATM   10  N   LIG     1      93.739  94.951  94.383  1.00  0.00    -0.339 N 
HETATM   11  H   LIG     1      93.605  93.940  94.356  1.00  0.00     0.167 HD
ENDBRANCH   2   4
ENDBRANCH   1   2
BRANCH   1  12
HETATM   12  C   LIG     1      92.272  95.025  91.107  1.00  0.00     0.039 A 
HETATM   13  C   LIG     1      92.448  96.102  90.208  1.00  0.00     0.004 A 
HETATM   14  C   LIG     1      93.503  96.100  89.283  1.00  0.00     0.002 A 
HETATM   15  C   LIG     1      94.403  95.018  89.243  1.00  0.00     0.020 A 
HETATM   16  C   LIG     1      95.461  95.022  88.311  1.00  0.00     0.003 A 
HETATM   17  C   LIG     1      94.259  93.918  90.132  1.00  0.00     0.103 A 
HETATM   18  C   LIG     1      96.348  93.931  88.289  1.00  0.00     0.021 A 
HETATM   19  C   LIG     1      96.136  92.883  89.202  1.00  0.00     0.099 A 
HETATM   20  N   LIG     1      95.125  92.874  90.094  1.00  0.00    -0.242 NA
HETATM   21  C   LIG     1      93.185  93.937  91.059  1.00  0.00     0.108 A 
BRANCH  21  22
HETATM   22  O   LIG     1      93.033  92.879  91.917  1.00  0.00    -0.357 OA
HETATM   23  H   LIG     1      93.810  92.357  92.035  1.00  0.00     0.217 HD
ENDBRANCH  21  22
ENDBRANCH   1  12
BRANCH   1  24
HETATM   24  C   LIG     1      89.895  95.831  91.707  1.00  0.00     0.016 A 
HETATM   25  C   LIG     1      88.997  95.278  90.768  1.00  0.00     0.001 A 
HETATM   26  C   LIG     1      87.855  95.993  90.363  1.00  0.00     0.000 A 
HETATM   27  C   LIG     1      87.597  97.271  90.896  1.00  0.00     0.000 A 
HETATM   28  C   LIG     1      88.485  97.831  91.834  1.00  0.00     0.000 A 
HETATM   29  C   LIG     1      89.629  97.116  92.238  1.00  0.00     0.001 A 
ENDBRANCH   1  24
TORSDOF 5
ENDMDL
MODEL 6
REMARK VINA RESULT:       0.0      5.757      9.282
REMARK  5 active torsions:
REMARK  status: ('A' for Active; 'I' for Inactive)
REMARK    1  A    between atoms: C_1  and  N_20 
REMARK    2  A    between atoms: C_1  and  C_8 
REMARK    3  A    between atoms: C_1  and  C_2 
REMARK    4  A    between atoms: C_9  and  O_18 
REMARK    5  A    between atoms: N_20  and  C_22 
ROOT
HETATM    1  C   LIG     1      85.789  83.156  86.731  1.00  0.00     0.060 C 
ENDROOT
BRANCH   1   2
HETATM    2  N   LIG     1      85.922  84.564  87.120  1.00  0.00    -0.340 N 
HETATM    3  H   LIG     1      86.581  84.774  87.856  1.00  0.00     0.167 HD
BRANCH   2   4
HETATM    4  C   LIG     1      85.172  85.620  86.575  1.00  0.00     0.118 A 
HETATM    5  C   LIG     1      83.859  85.868  87.028  1.00  0.00     0.031 A 
HETATM    6  C   LIG     1      83.118  86.937  86.479  1.00  0.00    -0.017 A 
HETATM    7  C   LIG     1      83.711  87.744  85.484  1.00  0.00     0.014 A 
HETATM    8  C   LIG     1      81.708  87.219  86.956  1.00  0.00     0.031 C 
HETATM    9  C   LIG     1      85.025  87.457  85.065  1.00  0.00     0.073 A 
HETATM   10  N   LIG     1      85.695  86.423  85.618  1.00  0.00    -0.339 N 
HETATM   11  H   LIG     1      86.643  86.235  85.290  1.00  0.00     0.167 HD
ENDBRANCH   2   4
ENDBRANCH   1   2
BRANCH   1  12
HETATM   12  C   LIG     1      85.127  82.886  85.370  1.00  0.00     0.039 A 
HETATM   13  C   LIG     1      83.836  82.318  85.284  1.00  0.00     0.004 A 
HETATM   14  C   LIG     1      83.237  82.081  84.036  1.00  0.00     0.002 A 
HETATM   15  C   LIG     1      83.922  82.414  82.853  1.00  0.00     0.020 A 
HETATM   16  C   LIG     1      83.315  82.174  81.602  1.00  0.00     0.003 A 
HETATM   17  C   LIG     1      85.221  82.989  82.899  1.00  0.00     0.103 A 
HETATM   18  C   LIG     1      84.018  82.513  80.433  1.00  0.00     0.021 A 
HETATM   19  C   LIG     1      85.298  83.078  80.566  1.00  0.00     0.099 A 
HETATM   20  N   LIG     1      85.883  83.308  81.759  1.00  0.00    -0.242 NA
HETATM   21  C   LIG     1      85.811  83.218  84.169  1.00  0.00     0.108 A 
BRANCH  21  22
HETATM   22  O   LIG     1      87.066  83.766  84.227  1.00  0.00    -0.357 OA
HETATM   23  H   LIG     1      87.551  83.716  83.419  1.00  0.00     0.217 HD
ENDBRANCH  21  22
ENDBRANCH   1  12
BRANCH   1  24
HETATM   24  C   LIG     1      85.317  82.235  87.860  1.00  0.00     0.016 A 
HETATM   25  C   LIG     1      85.822  80.918  87.928  1.00  0.00     0.001 A 
HETATM   26  C   LIG     1      85.414  80.048  88.957  1.00  0.00     0.000 A 
HETATM   27  C   LIG     1      84.496  80.487  89.929  1.00  0.00     0.000 A 
HETATM   28  C   LIG     1      83.987  81.798  89.871  1.00  0.00     0.000 A 
HETATM   29  C   LIG     1      84.394  82.669  88.842  1.00  0.00     0.001 A 
ENDBRANCH   1  24
TORSDOF 5
ENDMDL
MODEL 7
REMARK VINA RESULT:       0.0     10.629     13.008
REMARK  5 active torsions:
REMARK  status: ('A' for Active; 'I' for Inactive)
REMARK    1  A    between atoms: C_1  and  N_20 
REMARK    2  A    between atoms: C_1  and  C_8 
REMARK    3  A    between atoms: C_1  and  C_2 
REMARK    4  A    between atoms: C_9  and  O_18 
REMARK    5  A    between atoms: N_20  and  C_22 
ROOT
HETATM    1  C   LIG     1      91.645  93.351  85.160  1.00  0.00     0.060 C 
ENDROOT
BRANCH   1   2
HETATM    2  N   LIG     1      92.224  93.627  86.479  1.00  0.00    -0.340 N 
HETATM    3  H   LIG     1      91.647  93.424  87.282  1.00  0.00     0.167 HD
BRANCH   2   4
HETATM    4  C   LIG     1      93.493  94.190  86.695  1.00  0.00     0.118 A 
HETATM    5  C   LIG     1      93.681  95.585  86.587  1.00  0.00     0.031 A 
HETATM    6  C   LIG     1      94.958  96.140  86.815  1.00  0.00    -0.017 A 
HETATM    7  C   LIG     1      96.028  95.285  87.153  1.00  0.00     0.014 A 
HETATM    8  C   LIG     1      95.176  97.635  86.705  1.00  0.00     0.031 C 
HETATM    9  C   LIG     1      95.791  93.900  87.250  1.00  0.00     0.073 A 
HETATM   10  N   LIG     1      94.553  93.413  87.022  1.00  0.00    -0.339 N 
HETATM   11  H   LIG     1      94.412  92.405  87.093  1.00  0.00     0.167 HD
ENDBRANCH   2   4
ENDBRANCH   1   2
BRANCH   1  12
HETATM   12  C   LIG     1      92.637  93.259  83.989  1.00  0.00     0.039 A 
HETATM   13  C   LIG     1      92.689  94.262  82.993  1.00  0.00     0.004 A 
HETATM   14  C   LIG     1      93.603  94.172  81.931  1.00  0.00     0.002 A 
HETATM   15  C   LIG     1      94.483  93.077  81.850  1.00  0.00     0.020 A 
HETATM   16  C   LIG     1      95.399  92.993  80.781  1.00  0.00     0.003 A 
HETATM   17  C   LIG     1      94.462  92.050  82.833  1.00  0.00     0.103 A 
HETATM   18  C   LIG     1      96.269  91.890  80.719  1.00  0.00     0.021 A 
HETATM   19  C   LIG     1      96.183  90.918  81.732  1.00  0.00     0.099 A 
HETATM   20  N   LIG     1      95.309  90.994  82.755  1.00  0.00    -0.242 NA
HETATM   21  C   LIG     1      93.530  92.157  83.898  1.00  0.00     0.108 A 
BRANCH  21  22
HETATM   22  O   LIG     1      93.495  91.170  84.848  1.00  0.00    -0.357 OA
HETATM   23  H   LIG     1      94.239  91.162  85.430  1.00  0.00     0.217 HD
ENDBRANCH  21  22
ENDBRANCH   1  12
BRANCH   1  24
HETATM   24  C   LIG     1      90.373  94.146  84.853  1.00  0.00     0.016 A 
HETATM   25  C   LIG     1      89.349  93.536  84.095  1.00  0.00     0.001 A 
HETATM   26  C   LIG     1      88.163  94.236  83.801  1.00  0.00     0.000 A 
HETATM   27  C   LIG     1      87.990  95.554  84.263  1.00  0.00     0.000 A 
HETATM   28  C   LIG     1      89.004  96.171  85.020  1.00  0.00     0.000 A 
HETATM   29  C   LIG     1      90.190  95.471  85.314  1.00  0.00     0.001 A 
ENDBRANCH   1  24
TORSDOF 5
ENDMDL
MODEL 8
REMARK VINA RESULT:       0.0      5.523      8.411
REMARK  5 active torsions:
REMARK  status: ('A' for Active; 'I' for Inactive)
REMARK    1  A    between atoms: C_1  and  N_20 
REMARK    2  A    between atoms: C_1  and  C_8 
REMARK    3  A    between atoms: C_1  and  C_2 
REMARK    4  A    between atoms: C_9  and  O_18 
REMARK    5  A    between atoms: N_20  and  C_22 
ROOT
HETATM    1  C   LIG     1      88.558  89.481  92.379  1.00  0.00     0.060 C 
ENDROOT
BRANCH   1   2
HETATM    2  N   LIG     1      89.617  89.226  93.361  1.00  0.00    -0.340 N 
HETATM    3  H   LIG     1      89.327  88.897  94.271  1.00  0.00     0.167 HD
BRANCH   2   4
HETATM    4  C   LIG     1      90.987  89.449  93.139  1.00  0.00     0.118 A 
HETATM    5  C   LIG     1      91.525  90.749  93.255  1.00  0.00     0.031 A 
HETATM    6  C   LIG     1      92.903  90.958  93.037  1.00  0.00    -0.017 A 
HETATM    7  C   LIG     1      93.723  89.857  92.711  1.00  0.00     0.014 A 
HETATM    8  C   LIG     1      93.497  92.347  93.160  1.00  0.00     0.031 C 
HETATM    9  C   LIG     1      93.140  88.579  92.608  1.00  0.00     0.073 A 
HETATM   10  N   LIG     1      91.816  88.426  92.824  1.00  0.00    -0.339 N 
HETATM   11  H   LIG     1      91.420  87.489  92.736  1.00  0.00     0.167 HD
ENDBRANCH   2   4
ENDBRANCH   1   2
BRANCH   1  12
HETATM   12  C   LIG     1      89.002  89.571  90.910  1.00  0.00     0.039 A 
HETATM   13  C   LIG     1      88.992  90.803  90.216  1.00  0.00     0.004 A 
HETATM   14  C   LIG     1      89.405  90.875  88.877  1.00  0.00     0.002 A 
HETATM   15  C   LIG     1      89.838  89.715  88.209  1.00  0.00     0.020 A 
HETATM   16  C   LIG     1      90.252  89.794  86.863  1.00  0.00     0.003 A 
HETATM   17  C   LIG     1      89.863  88.458  88.874  1.00  0.00     0.103 A 
HETATM   18  C   LIG     1      90.680  88.622  86.216  1.00  0.00     0.021 A 
HETATM   19  C   LIG     1      90.675  87.420  86.945  1.00  0.00     0.099 A 
HETATM   20  N   LIG     1      90.279  87.338  88.232  1.00  0.00    -0.242 NA
HETATM   21  C   LIG     1      89.440  88.404  90.228  1.00  0.00     0.108 A 
BRANCH  21  22
HETATM   22  O   LIG     1      89.454  87.197  90.878  1.00  0.00    -0.357 OA
HETATM   23  H   LIG     1      88.654  86.703  90.799  1.00  0.00     0.217 HD
ENDBRANCH  21  22
ENDBRANCH   1  12
BRANCH   1  24
HETATM   24  C   LIG     1      87.552  90.554  92.805  1.00  0.00     0.016 A 
HETATM   25  C   LIG     1      86.197  90.409  92.437  1.00  0.00     0.001 A 
HETATM   26  C   LIG     1      85.244  91.374  92.818  1.00  0.00     0.000 A 
HETATM   27  C   LIG     1      85.639  92.494  93.573  1.00  0.00     0.000 A 
HETATM   28  C   LIG     1      86.988  92.648  93.946  1.00  0.00     0.000 A 
HETATM   29  C   LIG     1      87.941  91.684  93.565  1.00  0.00     0.001 A 
ENDBRANCH   1  24
TORSDOF 5
ENDMDL
MODEL 9
REMARK VINA RESULT:       0.0      7.852     10.013
REMARK  5 active torsions:
REMARK  status: ('A' for Active; 'I' for Inactive)
REMARK    1  A    between atoms: C_1  and  N_20 
REMARK    2  A    between atoms: C_1  and  C_8 
REMARK    3  A    between atoms: C_1  and  C_2 
REMARK    4  A    between atoms: C_9  and  O_18 
REMARK    5  A    between atoms: N_20  and  C_22 
ROOT
HETATM    1  C   LIG     1      91.580  94.720  88.170  1.00  0.00     0.060 C 
ENDROOT
BRANCH   1   2
HETATM    2  N   LIG     1      90.325  94.990  88.880  1.00  0.00    -0.340 N 
HETATM    3  H   LIG     1      90.232  95.897  89.315  1.00  0.00     0.167 HD
BRANCH   2   4
HETATM    4  C   LIG     1      89.276  94.068  89.032  1.00  0.00     0.118 A 
HETATM    5  C   LIG     1      89.344  93.070  90.028  1.00  0.00     0.031 A 
HETATM    6  C   LIG     1      88.280  92.154  90.177  1.00  0.00    -0.017 A 
HETATM    7  C   LIG     1      87.160  92.259  89.325  1.00  0.00     0.014 A 
HETATM    8  C   LIG     1      88.336  91.079  91.242  1.00  0.00     0.031 C 
HETATM    9  C   LIG     1      87.137  93.272  88.347  1.00  0.00     0.073 A 
HETATM   10  N   LIG     1      88.178  94.125  88.241  1.00  0.00    -0.339 N 
HETATM   11  H   LIG     1      88.138  94.845  87.519  1.00  0.00     0.167 HD
ENDBRANCH   2   4
ENDBRANCH   1   2
BRANCH   1  12
HETATM   12  C   LIG     1      91.559  93.545  87.179  1.00  0.00     0.039 A 
HETATM   13  C   LIG     1      92.257  92.346  87.452  1.00  0.00     0.004 A 
HETATM   14  C   LIG     1      92.228  91.276  86.543  1.00  0.00     0.002 A 
HETATM   15  C   LIG     1      91.495  91.388  85.347  1.00  0.00     0.020 A 
HETATM   16  C   LIG     1      91.469  90.309  84.439  1.00  0.00     0.003 A 
HETATM   17  C   LIG     1      90.780  92.577  85.039  1.00  0.00     0.103 A 
HETATM   18  C   LIG     1      90.732  90.443  83.249  1.00  0.00     0.021 A 
HETATM   19  C   LIG     1      90.052  91.652  83.020  1.00  0.00     0.099 A 
HETATM   20  N   LIG     1      90.075  92.687  83.886  1.00  0.00    -0.242 NA
HETATM   21  C   LIG     1      90.823  93.649  85.968  1.00  0.00     0.108 A 
BRANCH  21  22
HETATM   22  O   LIG     1      90.142  94.803  85.680  1.00  0.00    -0.357 OA
HETATM   23  H   LIG     1      89.547  94.732  84.951  1.00  0.00     0.217 HD
ENDBRANCH  21  22
ENDBRANCH   1  12
BRANCH   1  24
HETATM   24  C   LIG     1      92.828  94.783  89.055  1.00  0.00     0.016 A 
HETATM   25  C   LIG     1      94.030  95.284  88.509  1.00  0.00     0.001 A 
HETATM   26  C   LIG     1      95.195  95.362  89.297  1.00  0.00     0.000 A 
HETATM   27  C   LIG     1      95.167  94.941  90.640  1.00  0.00     0.000 A 
HETATM   28  C   LIG     1      93.973  94.440  91.194  1.00  0.00     0.000 A 
HETATM   29  C   LIG     1      92.809  94.361  90.406  1.00  0.00     0.001 A 
ENDBRANCH   1  24
TORSDOF 5
ENDMDL
