MODEL 1
REMARK VINA RESULT:      -0.0      0.000      0.000
REMARK  5 active torsions:
REMARK  status: ('A' for Active; 'I' for Inactive)
REMARK    1  A    between atoms: S_1  and  C_4 
REMARK    2  A    between atoms: S_1  and  N_13 
REMARK    3  A    between atoms: C_7  and  N_10 
REMARK    4  A    between atoms: N_13  and  C_15 
REMARK    5  A    between atoms: C_15  and  C_16 
ROOT
HETATM    1  S   LIG     1      85.028  94.290  91.762  1.00  0.00     0.261 S 
HETATM    2  O   LIG     1      84.056  93.185  91.796  1.00  0.00    -0.200 OA
HETATM    3  O   LIG     1      86.472  94.015  91.705  1.00  0.00    -0.200 OA
ENDROOT
BRANCH   1   4
HETATM    4  C   LIG     1      84.723  95.379  93.148  1.00  0.00     0.103 A 
HETATM    5  C   LIG     1      83.461  95.987  93.301  1.00  0.00     0.014 A 
HETATM    6  C   LIG     1      83.235  96.860  94.383  1.00  0.00     0.017 A 
HETATM    7  C   LIG     1      84.267  97.121  95.308  1.00  0.00     0.050 A 
HETATM    8  C   LIG     1      85.526  96.505  95.153  1.00  0.00     0.017 A 
HETATM    9  C   LIG     1      85.756  95.631  94.073  1.00  0.00     0.014 A 
BRANCH   7  10
HETATM   10  N   LIG     1      84.043  97.989  96.374  1.00  0.00    -0.398 N 
HETATM   11  H   LIG     1      83.705  97.652  97.265  1.00  0.00     0.156 HD
HETATM   12  H   LIG     1      84.335  98.955  96.337  1.00  0.00     0.156 HD
ENDBRANCH   7  10
ENDBRANCH   1   4
BRANCH   1  13
HETATM   13  N   LIG     1      84.645  95.292  90.411  1.00  0.00    -0.297 N 
HETATM   14  H   LIG     1      83.962  94.868  89.784  1.00  0.00     0.173 HD
BRANCH  13  15
HETATM   15  C   LIG     1      85.705  96.032  89.721  1.00  0.00     0.138 C 
BRANCH  15  16
HETATM   16  C   LIG     1      85.772  97.490  90.205  1.00  0.00     0.138 C 
HETATM   17  C   LIG     1      86.809  97.709  91.328  1.00  0.00     0.032 C 
HETATM   18  C   LIG     1      86.751  99.149  91.849  1.00  0.00     0.005 C 
HETATM   19  C   LIG     1      85.313  99.498  92.247  1.00  0.00     0.032 C 
HETATM   20  C   LIG     1      84.352  99.193  91.087  1.00  0.00     0.142 C 
HETATM   21  O   LIG     1      84.478  97.828  90.701  1.00  0.00    -0.355 OA
ENDBRANCH  15  16
ENDBRANCH  13  15
ENDBRANCH   1  13
TORSDOF 5
ENDMDL
MODEL 2
REMARK VINA RESULT:      -0.0     11.374     13.528
REMARK  5 active torsions:
REMARK  status: ('A' for Active; 'I' for Inactive)
REMARK    1  A    between atoms: S_1  and  C_4 
REMARK    2  A    between atoms: S_1  and  N_13 
REMARK    3  A    between atoms: C_7  and  N_10 
REMARK    4  A    between atoms: N_13  and  C_15 
REMARK    5  A    between atoms: C_15  and  C_16 
ROOT
HETATM    1  S   LIG     1      86.216  85.646  85.771  1.00  0.00     0.261 S 
HETATM    2  O   LIG     1      87.285  86.620  86.049  1.00  0.00    -0.200 OA
HETATM    3  O   LIG     1      86.296  84.762  84.599  1.00  0.00    -0.200 OA
ENDROOT
BRANCH   1   4
HETATM    4  C   LIG     1      84.645  86.501  85.718  1.00  0.00     0.103 A 
HETATM    5  C   LIG     1      84.208  87.238  86.837  1.00  0.00     0.014 A 
HETATM    6  C   LIG     1      82.960  87.891  86.796  1.00  0.00     0.017 A 
HETATM    7  C   LIG     1      82.157  87.807  85.640  1.00  0.00     0.050 A 
HETATM    8  C   LIG     1      82.603  87.073  84.522  1.00  0.00     0.017 A 
HETATM    9  C   LIG     1      83.850  86.420  84.558  1.00  0.00     0.014 A 
BRANCH   7  10
HETATM   10  N   LIG     1      80.921  88.450  85.603  1.00  0.00    -0.398 N 
HETATM   11  H   LIG     1      80.649  89.023  84.817  1.00  0.00     0.156 HD
HETATM   12  H   LIG     1      80.208  88.257  86.292  1.00  0.00     0.156 HD
ENDBRANCH   7  10
ENDBRANCH   1   4
BRANCH   1  13
HETATM   13  N   LIG     1      86.044  84.638  87.161  1.00  0.00    -0.297 N 
HETATM   14  H   LIG     1      86.800  84.757  87.833  1.00  0.00     0.173 HD
BRANCH  13  15
HETATM   15  C   LIG     1      85.595  83.251  87.011  1.00  0.00     0.138 C 
BRANCH  15  16
HETATM   16  C   LIG     1      84.089  83.120  87.292  1.00  0.00     0.138 C 
HETATM   17  C   LIG     1      83.226  83.185  86.013  1.00  0.00     0.032 C 
HETATM   18  C   LIG     1      81.734  83.166  86.361  1.00  0.00     0.005 C 
HETATM   19  C   LIG     1      81.427  84.266  87.382  1.00  0.00     0.032 C 
HETATM   20  C   LIG     1      82.372  84.151  88.588  1.00  0.00     0.142 C 
HETATM   21  O   LIG     1      83.725  84.200  88.148  1.00  0.00    -0.355 OA
ENDBRANCH  15  16
ENDBRANCH  13  15
ENDBRANCH   1  13
TORSDOF 5
ENDMDL
MODEL 3
REMARK VINA RESULT:      -0.0      9.349     10.594
REMARK  5 active torsions:
REMARK  status: ('A' for Active; 'I' for Inactive)
REMARK    1  A    between atoms: S_1  and  C_4 
REMARK    2  A    between atoms: S_1  and  N_13 
REMARK    3  A    between atoms: C_7  and  N_10 
REMARK    4  A    between atoms: N_13  and  C_15 
REMARK    5  A    between atoms: C_15  and  C_16 
ROOT
HETATM    1  S   LIG     1      89.627  85.789  94.919  1.00  0.00     0.261 S 
HETATM    2  O   LIG     1      88.681  85.437  95.990  1.00  0.00    -0.200 OA
HETATM    3  O   LIG     1      90.719  84.875  94.554  1.00  0.00    -0.200 OA
ENDROOT
BRANCH   1   4
HETATM    4  C   LIG     1      90.337  87.394  95.270  1.00  0.00     0.103 A 
HETATM    5  C   LIG     1      89.498  88.516  95.423  1.00  0.00     0.014 A 
HETATM    6  C   LIG     1      90.066  89.780  95.678  1.00  0.00     0.017 A 
HETATM    7  C   LIG     1      91.466  89.918  95.782  1.00  0.00     0.050 A 
HETATM    8  C   LIG     1      92.299  88.790  95.634  1.00  0.00     0.017 A 
HETATM    9  C   LIG     1      91.736  87.524  95.379  1.00  0.00     0.014 A 
BRANCH   7  10
HETATM   10  N   LIG     1      92.025  91.170  96.029  1.00  0.00    -0.398 N 
HETATM   11  H   LIG     1      92.822  91.502  95.505  1.00  0.00     0.156 HD
HETATM   12  H   LIG     1      91.575  91.835  96.641  1.00  0.00     0.156 HD
ENDBRANCH   7  10
ENDBRANCH   1   4
BRANCH   1  13
HETATM   13  N   LIG     1      88.715  86.093  93.486  1.00  0.00    -0.297 N 
HETATM   14  H   LIG     1      87.740  85.807  93.568  1.00  0.00     0.173 HD
BRANCH  13  15
HETATM   15  C   LIG     1      89.303  85.825  92.170  1.00  0.00     0.138 C 
BRANCH  15  16
HETATM   16  C   LIG     1      89.865  87.110  91.539  1.00  0.00     0.138 C 
HETATM   17  C   LIG     1      91.374  87.305  91.803  1.00  0.00     0.032 C 
HETATM   18  C   LIG     1      91.853  88.653  91.253  1.00  0.00     0.005 C 
HETATM   19  C   LIG     1      90.970  89.779  91.801  1.00  0.00     0.032 C 
HETATM   20  C   LIG     1      89.488  89.466  91.540  1.00  0.00     0.142 C 
HETATM   21  O   LIG     1      89.153  88.205  92.111  1.00  0.00    -0.355 OA
ENDBRANCH  15  16
ENDBRANCH  13  15
ENDBRANCH   1  13
TORSDOF 5
ENDMDL
MODEL 4
REMARK VINA RESULT:      -0.0      7.599      9.582
REMARK  5 active torsions:
REMARK  status: ('A' for Active; 'I' for Inactive)
REMARK    1  A    between atoms: S_1  and  C_4 
REMARK    2  A    between atoms: S_1  and  N_13 
REMARK    3  A    between atoms: C_7  and  N_10 
REMARK    4  A    between atoms: N_13  and  C_15 
REMARK    5  A    between atoms: C_15  and  C_16 
ROOT
HETATM    1  S   LIG     1      89.292  88.892  93.704  1.00  0.00     0.261 S 
HETATM    2  O   LIG     1      90.697  88.922  94.144  1.00  0.00    -0.200 OA
HETATM    3  O   LIG     1      88.239  88.389  94.599  1.00  0.00    -0.200 OA
ENDROOT
BRANCH   1   4
HETATM    4  C   LIG     1      89.183  87.998  92.158  1.00  0.00     0.103 A 
HETATM    5  C   LIG     1      89.923  88.434  91.041  1.00  0.00     0.014 A 
HETATM    6  C   LIG     1      89.816  87.738  89.820  1.00  0.00     0.017 A 
HETATM    7  C   LIG     1      88.974  86.612  89.721  1.00  0.00     0.050 A 
HETATM    8  C   LIG     1      88.241  86.177  90.844  1.00  0.00     0.017 A 
HETATM    9  C   LIG     1      88.345  86.869  92.066  1.00  0.00     0.014 A 
BRANCH   7  10
HETATM   10  N   LIG     1      88.865  85.928  88.511  1.00  0.00    -0.398 N 
HETATM   11  H   LIG     1      88.257  85.127  88.413  1.00  0.00     0.156 HD
HETATM   12  H   LIG     1      89.283  86.288  87.665  1.00  0.00     0.156 HD
ENDBRANCH   7  10
ENDBRANCH   1   4
BRANCH   1  13
HETATM   13  N   LIG     1      88.847  90.493  93.241  1.00  0.00    -0.297 N 
HETATM   14  H   LIG     1      89.537  91.191  93.514  1.00  0.00     0.173 HD
BRANCH  13  15
HETATM   15  C   LIG     1      87.459  90.941  93.386  1.00  0.00     0.138 C 
BRANCH  15  16
HETATM   16  C   LIG     1      86.696  90.831  92.056  1.00  0.00     0.138 C 
HETATM   17  C   LIG     1      85.904  89.513  91.918  1.00  0.00     0.032 C 
HETATM   18  C   LIG     1      85.260  89.406  90.531  1.00  0.00     0.005 C 
HETATM   19  C   LIG     1      86.325  89.615  89.449  1.00  0.00     0.032 C 
HETATM   20  C   LIG     1      87.094  90.921  89.704  1.00  0.00     0.142 C 
HETATM   21  O   LIG     1      87.663  90.899  91.010  1.00  0.00    -0.355 OA
ENDBRANCH  15  16
ENDBRANCH  13  15
ENDBRANCH   1  13
TORSDOF 5
ENDMDL
MODEL 5
REMARK VINA RESULT:      -0.0      7.405      9.554
REMARK  5 active torsions:
REMARK  status: ('A' for Active; 'I' for Inactive)
REMARK    1  A    between atoms: S_1  and  C_4 
REMARK    2  A    between atoms: S_1  and  N_13 
REMARK    3  A    between atoms: C_7  and  N_10 
REMARK    4  A    between atoms: N_13  and  C_15 
REMARK    5  A    between atoms: C_15  and  C_16 
ROOT
HETATM    1  S   LIG     1      89.017  89.917  87.406  1.00  0.00     0.261 S 
HETATM    2  O   LIG     1      89.334  88.571  86.902  1.00  0.00    -0.200 OA
HETATM    3  O   LIG     1      87.674  90.226  87.921  1.00  0.00    -0.200 OA
ENDROOT
BRANCH   1   4
HETATM    4  C   LIG     1      89.422  91.123  86.147  1.00  0.00     0.103 A 
HETATM    5  C   LIG     1      90.736  91.203  85.647  1.00  0.00     0.014 A 
HETATM    6  C   LIG     1      91.053  92.169  84.672  1.00  0.00     0.017 A 
HETATM    7  C   LIG     1      90.056  93.048  84.198  1.00  0.00     0.050 A 
HETATM    8  C   LIG     1      88.741  92.959  84.698  1.00  0.00     0.017 A 
HETATM    9  C   LIG     1      88.420  91.994  85.673  1.00  0.00     0.014 A 
BRANCH   7  10
HETATM   10  N   LIG     1      90.373  94.006  83.237  1.00  0.00    -0.398 N 
HETATM   11  H   LIG     1      91.330  94.179  82.961  1.00  0.00     0.156 HD
HETATM   12  H   LIG     1      89.655  94.461  82.691  1.00  0.00     0.156 HD
ENDBRANCH   7  10
ENDBRANCH   1   4
BRANCH   1  13
HETATM   13  N   LIG     1      90.143  90.295  88.657  1.00  0.00    -0.297 N 
HETATM   14  H   LIG     1      90.692  89.488  88.953  1.00  0.00     0.173 HD
BRANCH  13  15
HETATM   15  C   LIG     1      89.751  91.181  89.756  1.00  0.00     0.138 C 
BRANCH  15  16
HETATM   16  C   LIG     1      90.235  92.620  89.511  1.00  0.00     0.138 C 
HETATM   17  C   LIG     1      89.164  93.516  88.851  1.00  0.00     0.032 C 
HETATM   18  C   LIG     1      89.736  94.899  88.526  1.00  0.00     0.005 C 
HETATM   19  C   LIG     1      91.021  94.747  87.704  1.00  0.00     0.032 C 
HETATM   20  C   LIG     1      91.997  93.797  88.414  1.00  0.00     0.142 C 
HETATM   21  O   LIG     1      91.366  92.541  88.647  1.00  0.00    -0.355 OA
ENDBRANCH  15  16
ENDBRANCH  13  15
ENDBRANCH   1  13
TORSDOF 5
ENDMDL
MODEL 6
REMARK VINA RESULT:      -0.0      7.908     10.004
REMARK  5 active torsions:
REMARK  status: ('A' for Active; 'I' for Inactive)
REMARK    1  A    between atoms: S_1  and  C_4 
REMARK    2  A    between atoms: S_1  and  N_13 
REMARK    3  A    between atoms: C_7  and  N_10 
REMARK    4  A    between atoms: N_13  and  C_15 
REMARK    5  A    between atoms: C_15  and  C_16 
ROOT
HETATM    1  S   LIG     1      89.810  92.002  85.975  1.00  0.00     0.261 S 
HETATM    2  O   LIG     1      89.836  91.208  84.737  1.00  0.00    -0.200 OA
HETATM    3  O   LIG     1      88.706  92.935  86.243  1.00  0.00    -0.200 OA
ENDROOT
BRANCH   1   4
HETATM    4  C   LIG     1      91.349  92.903  86.125  1.00  0.00     0.103 A 
HETATM    5  C   LIG     1      92.573  92.205  86.144  1.00  0.00     0.014 A 
HETATM    6  C   LIG     1      93.780  92.919  86.283  1.00  0.00     0.017 A 
HETATM    7  C   LIG     1      93.759  94.325  86.400  1.00  0.00     0.050 A 
HETATM    8  C   LIG     1      92.532  95.017  86.374  1.00  0.00     0.017 A 
HETATM    9  C   LIG     1      91.323  94.307  86.234  1.00  0.00     0.014 A 
BRANCH   7  10
HETATM   10  N   LIG     1      94.953  95.029  86.542  1.00  0.00    -0.398 N 
HETATM   11  H   LIG     1      95.552  95.215  85.750  1.00  0.00     0.156 HD
HETATM   12  H   LIG     1      95.192  95.489  87.409  1.00  0.00     0.156 HD
ENDBRANCH   7  10
ENDBRANCH   1   4
BRANCH   1  13
HETATM   13  N   LIG     1      89.890  90.908  87.308  1.00  0.00    -0.297 N 
HETATM   14  H   LIG     1      89.756  89.936  87.032  1.00  0.00     0.173 HD
BRANCH  13  15
HETATM   15  C   LIG     1      89.255  91.256  88.582  1.00  0.00     0.138 C 
BRANCH  15  16
HETATM   16  C   LIG     1      90.280  91.827  89.577  1.00  0.00     0.138 C 
HETATM   17  C   LIG     1      90.338  93.370  89.569  1.00  0.00     0.032 C 
HETATM   18  C   LIG     1      91.452  93.878  90.490  1.00  0.00     0.005 C 
HETATM   19  C   LIG     1      92.776  93.198  90.124  1.00  0.00     0.032 C 
HETATM   20  C   LIG     1      92.602  91.672  90.105  1.00  0.00     0.142 C 
HETATM   21  O   LIG     1      91.558  91.316  89.204  1.00  0.00    -0.355 OA
ENDBRANCH  15  16
ENDBRANCH  13  15
ENDBRANCH   1  13
TORSDOF 5
ENDMDL
MODEL 7
REMARK VINA RESULT:      -0.0      9.586     11.164
REMARK  5 active torsions:
REMARK  status: ('A' for Active; 'I' for Inactive)
REMARK    1  A    between atoms: S_1  and  C_4 
REMARK    2  A    between atoms: S_1  and  N_13 
REMARK    3  A    between atoms: C_7  and  N_10 
REMARK    4  A    between atoms: N_13  and  C_15 
REMARK    5  A    between atoms: C_15  and  C_16 
ROOT
HETATM    1  S   LIG     1      86.154  84.534  91.157  1.00  0.00     0.261 S 
HETATM    2  O   LIG     1      85.896  83.408  90.246  1.00  0.00    -0.200 OA
HETATM    3  O   LIG     1      85.210  84.852  92.239  1.00  0.00    -0.200 OA
ENDROOT
BRANCH   1   4
HETATM    4  C   LIG     1      86.417  86.019  90.193  1.00  0.00     0.103 A 
HETATM    5  C   LIG     1      87.448  86.061  89.234  1.00  0.00     0.014 A 
HETATM    6  C   LIG     1      87.662  87.240  88.494  1.00  0.00     0.017 A 
HETATM    7  C   LIG     1      86.846  88.369  88.712  1.00  0.00     0.050 A 
HETATM    8  C   LIG     1      85.813  88.319  89.669  1.00  0.00     0.017 A 
HETATM    9  C   LIG     1      85.594  87.142  90.411  1.00  0.00     0.014 A 
BRANCH   7  10
HETATM   10  N   LIG     1      87.064  89.536  87.982  1.00  0.00    -0.398 N 
HETATM   11  H   LIG     1      87.587  90.310  88.370  1.00  0.00     0.156 HD
HETATM   12  H   LIG     1      86.825  89.596  87.002  1.00  0.00     0.156 HD
ENDBRANCH   7  10
ENDBRANCH   1   4
BRANCH   1  13
HETATM   13  N   LIG     1      87.699  84.285  91.884  1.00  0.00    -0.297 N 
HETATM   14  H   LIG     1      88.072  83.352  91.713  1.00  0.00     0.173 HD
BRANCH  13  15
HETATM   15  C   LIG     1      87.968  84.795  93.231  1.00  0.00     0.138 C 
BRANCH  15  16
HETATM   16  C   LIG     1      88.714  86.138  93.180  1.00  0.00     0.138 C 
HETATM   17  C   LIG     1      87.773  87.359  93.270  1.00  0.00     0.032 C 
HETATM   18  C   LIG     1      88.556  88.664  93.098  1.00  0.00     0.005 C 
HETATM   19  C   LIG     1      89.386  88.605  91.811  1.00  0.00     0.032 C 
HETATM   20  C   LIG     1      90.244  87.331  91.791  1.00  0.00     0.142 C 
HETATM   21  O   LIG     1      89.412  86.184  91.938  1.00  0.00    -0.355 OA
ENDBRANCH  15  16
ENDBRANCH  13  15
ENDBRANCH   1  13
TORSDOF 5
ENDMDL
MODEL 8
REMARK VINA RESULT:      -0.0      9.991     11.080
REMARK  5 active torsions:
REMARK  status: ('A' for Active; 'I' for Inactive)
REMARK    1  A    between atoms: S_1  and  C_4 
REMARK    2  A    between atoms: S_1  and  N_13 
REMARK    3  A    between atoms: C_7  and  N_10 
REMARK    4  A    between atoms: N_13  and  C_15 
REMARK    5  A    between atoms: C_15  and  C_16 
ROOT
HETATM    1  S   LIG     1      90.881  86.445  94.254  1.00  0.00     0.261 S 
HETATM    2  O   LIG     1      89.486  85.995  94.130  1.00  0.00    -0.200 OA
HETATM    3  O   LIG     1      91.976  85.469  94.355  1.00  0.00    -0.200 OA
ENDROOT
BRANCH   1   4
HETATM    4  C   LIG     1      91.011  87.572  95.639  1.00  0.00     0.103 A 
HETATM    5  C   LIG     1      90.228  88.743  95.668  1.00  0.00     0.014 A 
HETATM    6  C   LIG     1      90.352  89.636  96.751  1.00  0.00     0.017 A 
HETATM    7  C   LIG     1      91.251  89.355  97.799  1.00  0.00     0.050 A 
HETATM    8  C   LIG     1      92.027  88.178  97.767  1.00  0.00     0.017 A 
HETATM    9  C   LIG     1      91.907  87.282  96.687  1.00  0.00     0.014 A 
BRANCH   7  10
HETATM   10  N   LIG     1      91.375  90.242  98.867  1.00  0.00    -0.398 N 
HETATM   11  H   LIG     1      90.822  91.086  98.916  1.00  0.00     0.156 HD
HETATM   12  H   LIG     1      91.917  90.006  99.686  1.00  0.00     0.156 HD
ENDBRANCH   7  10
ENDBRANCH   1   4
BRANCH   1  13
HETATM   13  N   LIG     1      91.231  87.468  92.910  1.00  0.00    -0.297 N 
HETATM   14  H   LIG     1      90.509  87.439  92.191  1.00  0.00     0.173 HD
BRANCH  13  15
HETATM   15  C   LIG     1      92.595  87.544  92.379  1.00  0.00     0.138 C 
BRANCH  15  16
HETATM   16  C   LIG     1      93.338  88.773  92.926  1.00  0.00     0.138 C 
HETATM   17  C   LIG     1      94.198  88.458  94.170  1.00  0.00     0.032 C 
HETATM   18  C   LIG     1      94.821  89.737  94.739  1.00  0.00     0.005 C 
HETATM   19  C   LIG     1      93.727  90.782  94.981  1.00  0.00     0.032 C 
HETATM   20  C   LIG     1      92.894  90.984  93.706  1.00  0.00     0.142 C 
HETATM   21  O   LIG     1      92.351  89.738  93.282  1.00  0.00    -0.355 OA
ENDBRANCH  15  16
ENDBRANCH  13  15
ENDBRANCH   1  13
TORSDOF 5
ENDMDL
MODEL 9
REMARK VINA RESULT:       0.0      9.087     10.771
REMARK  5 active torsions:
REMARK  status: ('A' for Active; 'I' for Inactive)
REMARK    1  A    between atoms: S_1  and  C_4 
REMARK    2  A    between atoms: S_1  and  N_13 
REMARK    3  A    between atoms: C_7  and  N_10 
REMARK    4  A    between atoms: N_13  and  C_15 
REMARK    5  A    between atoms: C_15  and  C_16 
ROOT
HETATM    1  S   LIG     1      90.928  86.569  90.738  1.00  0.00     0.261 S 
HETATM    2  O   LIG     1      92.351  86.326  91.027  1.00  0.00    -0.200 OA
HETATM    3  O   LIG     1      90.483  86.868  89.369  1.00  0.00    -0.200 OA
ENDROOT
BRANCH   1   4
HETATM    4  C   LIG     1      90.325  87.863  91.817  1.00  0.00     0.103 A 
HETATM    5  C   LIG     1      90.410  87.710  93.215  1.00  0.00     0.014 A 
HETATM    6  C   LIG     1      89.913  88.724  94.057  1.00  0.00     0.017 A 
HETATM    7  C   LIG     1      89.337  89.885  93.502  1.00  0.00     0.050 A 
HETATM    8  C   LIG     1      89.261  90.035  92.103  1.00  0.00     0.017 A 
HETATM    9  C   LIG     1      89.756  89.024  91.256  1.00  0.00     0.014 A 
BRANCH   7  10
HETATM   10  N   LIG     1      88.842  90.884  94.338  1.00  0.00    -0.398 N 
HETATM   11  H   LIG     1      89.362  91.735  94.506  1.00  0.00     0.156 HD
HETATM   12  H   LIG     1      87.898  90.852  94.693  1.00  0.00     0.156 HD
ENDBRANCH   7  10
ENDBRANCH   1   4
BRANCH   1  13
HETATM   13  N   LIG     1      90.037  85.192  91.276  1.00  0.00    -0.297 N 
HETATM   14  H   LIG     1      90.633  84.402  91.517  1.00  0.00     0.173 HD
BRANCH  13  15
HETATM   15  C   LIG     1      88.794  84.812  90.598  1.00  0.00     0.138 C 
BRANCH  15  16
HETATM   16  C   LIG     1      87.563  85.337  91.356  1.00  0.00     0.138 C 
HETATM   17  C   LIG     1      87.050  86.689  90.816  1.00  0.00     0.032 C 
HETATM   18  C   LIG     1      85.899  87.219  91.678  1.00  0.00     0.005 C 
HETATM   19  C   LIG     1      86.328  87.253  93.149  1.00  0.00     0.032 C 
HETATM   20  C   LIG     1      86.874  85.881  93.575  1.00  0.00     0.142 C 
HETATM   21  O   LIG     1      87.947  85.501  92.719  1.00  0.00    -0.355 OA
ENDBRANCH  15  16
ENDBRANCH  13  15
ENDBRANCH   1  13
TORSDOF 5
ENDMDL
