MODEL 1
REMARK VINA RESULT:      -0.0      0.000      0.000
REMARK  3 active torsions:
REMARK  status: ('A' for Active; 'I' for Inactive)
REMARK    1  A    between atoms: C_3  and  N_7 
REMARK    2  A    between atoms: C_5  and  S_15 
REMARK    3  A    between atoms: N_8  and  C_9 
ROOT
HETATM    1  C   LIG     1      86.385  86.707  86.759  1.00  0.00     0.022 A 
HETATM    2  C   LIG     1      86.442  85.306  86.619  1.00  0.00     0.015 A 
HETATM    3  C   LIG     1      85.140  87.370  86.758  1.00  0.00     0.103 A 
HETATM    4  C   LIG     1      83.949  86.627  86.582  1.00  0.00     0.022 A 
HETATM    5  C   LIG     1      85.250  84.569  86.470  1.00  0.00     0.104 A 
HETATM    6  C   LIG     1      84.004  85.227  86.442  1.00  0.00     0.015 A 
ENDROOT
BRANCH   3   7
HETATM    7  N   LIG     1      85.122  88.782  86.884  1.00  0.00    -0.148 NA
HETATM    8  N   LIG     1      84.817  89.344  87.967  1.00  0.00    -0.148 NA
BRANCH   8   9
HETATM    9  C   LIG     1      85.019  88.709  89.219  1.00  0.00     0.103 A 
HETATM   10  C   LIG     1      83.906  88.162  89.889  1.00  0.00     0.021 A 
HETATM   11  C   LIG     1      84.069  87.539  91.142  1.00  0.00     0.002 A 
HETATM   12  C   LIG     1      85.344  87.473  91.736  1.00  0.00     0.000 A 
HETATM   13  C   LIG     1      86.457  88.033  91.080  1.00  0.00     0.002 A 
HETATM   14  C   LIG     1      86.296  88.656  89.827  1.00  0.00     0.021 A 
ENDBRANCH   8   9
ENDBRANCH   3   7
BRANCH   5  15
HETATM   15  S   LIG     1      85.323  82.788  86.282  1.00  0.00     0.139 S 
HETATM   16  O   LIG     1      84.796  82.554  84.928  1.00  0.00    -0.591 OA
HETATM   17  O   LIG     1      84.466  82.284  87.367  1.00  0.00    -0.591 OA
HETATM   18  O   LIG     1      86.756  82.497  86.443  1.00  0.00    -0.591 OA
ENDBRANCH   5  15
TORSDOF 3
ENDMDL
MODEL 2
REMARK VINA RESULT:      -0.0      7.910      9.396
REMARK  3 active torsions:
REMARK  status: ('A' for Active; 'I' for Inactive)
REMARK    1  A    between atoms: C_3  and  N_7 
REMARK    2  A    between atoms: C_5  and  S_15 
REMARK    3  A    between atoms: N_8  and  C_9 
ROOT
HETATM    1  C   LIG     1      91.295  89.960  89.585  1.00  0.00     0.022 A 
HETATM    2  C   LIG     1      91.438  89.352  88.323  1.00  0.00     0.015 A 
HETATM    3  C   LIG     1      92.403  90.072  90.450  1.00  0.00     0.103 A 
HETATM    4  C   LIG     1      93.655  89.539  90.058  1.00  0.00     0.022 A 
HETATM    5  C   LIG     1      92.694  88.847  87.928  1.00  0.00     0.104 A 
HETATM    6  C   LIG     1      93.801  88.932  88.797  1.00  0.00     0.015 A 
ENDROOT
BRANCH   3   7
HETATM    7  N   LIG     1      92.218  90.674  91.719  1.00  0.00    -0.148 NA
HETATM    8  N   LIG     1      92.595  91.851  91.953  1.00  0.00    -0.148 NA
BRANCH   8   9
HETATM    9  C   LIG     1      92.694  92.821  90.923  1.00  0.00     0.103 A 
HETATM   10  C   LIG     1      93.971  93.153  90.426  1.00  0.00     0.021 A 
HETATM   11  C   LIG     1      94.106  94.124  89.414  1.00  0.00     0.002 A 
HETATM   12  C   LIG     1      92.966  94.775  88.905  1.00  0.00     0.000 A 
HETATM   13  C   LIG     1      91.690  94.460  89.410  1.00  0.00     0.002 A 
HETATM   14  C   LIG     1      91.553  93.490  90.421  1.00  0.00     0.021 A 
ENDBRANCH   8   9
ENDBRANCH   3   7
BRANCH   5  15
HETATM   15  S   LIG     1      92.875  88.065  86.326  1.00  0.00     0.139 S 
HETATM   16  O   LIG     1      93.217  86.671  86.651  1.00  0.00    -0.591 OA
HETATM   17  O   LIG     1      93.957  88.826  85.682  1.00  0.00    -0.591 OA
HETATM   18  O   LIG     1      91.548  88.247  85.718  1.00  0.00    -0.591 OA
ENDBRANCH   5  15
TORSDOF 3
ENDMDL
MODEL 3
REMARK VINA RESULT:       0.0     12.741     13.708
REMARK  3 active torsions:
REMARK  status: ('A' for Active; 'I' for Inactive)
REMARK    1  A    between atoms: C_3  and  N_7 
REMARK    2  A    between atoms: C_5  and  S_15 
REMARK    3  A    between atoms: N_8  and  C_9 
ROOT
HETATM    1  C   LIG     1      89.043  94.436  95.231  1.00  0.00     0.022 A 
HETATM    2  C   LIG     1      89.000  95.706  95.837  1.00  0.00     0.015 A 
HETATM    3  C   LIG     1      89.707  94.260  93.999  1.00  0.00     0.103 A 
HETATM    4  C   LIG     1      90.302  95.371  93.357  1.00  0.00     0.022 A 
HETATM    5  C   LIG     1      89.618  96.805  95.205  1.00  0.00     0.104 A 
HETATM    6  C   LIG     1      90.262  96.642  93.962  1.00  0.00     0.015 A 
ENDROOT
BRANCH   3   7
HETATM    7  N   LIG     1      89.714  92.971  93.409  1.00  0.00    -0.148 NA
HETATM    8  N   LIG     1      90.731  92.230  93.453  1.00  0.00    -0.148 NA
BRANCH   8   9
HETATM    9  C   LIG     1      91.683  92.334  94.498  1.00  0.00     0.103 A 
HETATM   10  C   LIG     1      92.910  92.979  94.236  1.00  0.00     0.021 A 
HETATM   11  C   LIG     1      93.884  93.084  95.247  1.00  0.00     0.002 A 
HETATM   12  C   LIG     1      93.642  92.533  96.521  1.00  0.00     0.000 A 
HETATM   13  C   LIG     1      92.427  91.872  96.783  1.00  0.00     0.002 A 
HETATM   14  C   LIG     1      91.450  91.766  95.773  1.00  0.00     0.021 A 
ENDBRANCH   8   9
ENDBRANCH   3   7
BRANCH   5  15
HETATM   15  S   LIG     1      89.556  98.423  95.972  1.00  0.00     0.139 S 
HETATM   16  O   LIG     1      88.771  99.232  95.026  1.00  0.00    -0.591 OA
HETATM   17  O   LIG     1      90.970  98.814  96.084  1.00  0.00    -0.591 OA
HETATM   18  O   LIG     1      88.888  98.156  97.255  1.00  0.00    -0.591 OA
ENDBRANCH   5  15
TORSDOF 3
ENDMDL
MODEL 4
REMARK VINA RESULT:       0.0      5.127      6.617
REMARK  3 active torsions:
REMARK  status: ('A' for Active; 'I' for Inactive)
REMARK    1  A    between atoms: C_3  and  N_7 
REMARK    2  A    between atoms: C_5  and  S_15 
REMARK    3  A    between atoms: N_8  and  C_9 
ROOT
HETATM    1  C   LIG     1      83.842  91.374  90.796  1.00  0.00     0.022 A 
HETATM    2  C   LIG     1      83.170  90.626  89.810  1.00  0.00     0.015 A 
HETATM    3  C   LIG     1      85.224  91.191  91.006  1.00  0.00     0.103 A 
HETATM    4  C   LIG     1      85.929  90.229  90.245  1.00  0.00     0.022 A 
HETATM    5  C   LIG     1      83.882  89.687  89.037  1.00  0.00     0.104 A 
HETATM    6  C   LIG     1      85.259  89.480  89.258  1.00  0.00     0.015 A 
ENDROOT
BRANCH   3   7
HETATM    7  N   LIG     1      85.864  91.949  92.019  1.00  0.00    -0.148 NA
HETATM    8  N   LIG     1      86.581  92.946  91.745  1.00  0.00    -0.148 NA
BRANCH   8   9
HETATM    9  C   LIG     1      86.374  93.712  90.570  1.00  0.00     0.103 A 
HETATM   10  C   LIG     1      87.256  93.538  89.483  1.00  0.00     0.021 A 
HETATM   11  C   LIG     1      87.089  94.296  88.308  1.00  0.00     0.002 A 
HETATM   12  C   LIG     1      86.047  95.239  88.218  1.00  0.00     0.000 A 
HETATM   13  C   LIG     1      85.173  95.429  89.306  1.00  0.00     0.002 A 
HETATM   14  C   LIG     1      85.339  94.673  90.483  1.00  0.00     0.021 A 
ENDBRANCH   8   9
ENDBRANCH   3   7
BRANCH   5  15
HETATM   15  S   LIG     1      83.026  88.729  87.788  1.00  0.00     0.139 S 
HETATM   16  O   LIG     1      83.132  87.343  88.273  1.00  0.00    -0.591 OA
HETATM   17  O   LIG     1      83.779  89.004  86.554  1.00  0.00    -0.591 OA
HETATM   18  O   LIG     1      81.666  89.289  87.817  1.00  0.00    -0.591 OA
ENDBRANCH   5  15
TORSDOF 3
ENDMDL
MODEL 5
REMARK VINA RESULT:       0.0      5.859      7.190
REMARK  3 active torsions:
REMARK  status: ('A' for Active; 'I' for Inactive)
REMARK    1  A    between atoms: C_3  and  N_7 
REMARK    2  A    between atoms: C_5  and  S_15 
REMARK    3  A    between atoms: N_8  and  C_9 
ROOT
HETATM    1  C   LIG     1      88.683  91.624  88.396  1.00  0.00     0.022 A 
HETATM    2  C   LIG     1      89.840  90.912  88.023  1.00  0.00     0.015 A 
HETATM    3  C   LIG     1      88.097  92.544  87.502  1.00  0.00     0.103 A 
HETATM    4  C   LIG     1      88.695  92.775  86.241  1.00  0.00     0.022 A 
HETATM    5  C   LIG     1      90.416  91.128  86.755  1.00  0.00     0.104 A 
HETATM    6  C   LIG     1      89.851  92.065  85.865  1.00  0.00     0.015 A 
ENDROOT
BRANCH   3   7
HETATM    7  N   LIG     1      86.943  93.255  87.917  1.00  0.00    -0.148 NA
HETATM    8  N   LIG     1      85.794  92.944  87.510  1.00  0.00    -0.148 NA
BRANCH   8   9
HETATM    9  C   LIG     1      85.477  91.621  87.109  1.00  0.00     0.103 A 
HETATM   10  C   LIG     1      85.384  91.335  85.731  1.00  0.00     0.021 A 
HETATM   11  C   LIG     1      85.055  90.035  85.299  1.00  0.00     0.002 A 
HETATM   12  C   LIG     1      84.807  89.020  86.243  1.00  0.00     0.000 A 
HETATM   13  C   LIG     1      84.882  89.304  87.620  1.00  0.00     0.002 A 
HETATM   14  C   LIG     1      85.210  90.603  88.054  1.00  0.00     0.021 A 
ENDBRANCH   8   9
ENDBRANCH   3   7
BRANCH   5  15
HETATM   15  S   LIG     1      91.894  90.230  86.284  1.00  0.00     0.139 S 
HETATM   16  O   LIG     1      92.913  91.282  86.135  1.00  0.00    -0.591 OA
HETATM   17  O   LIG     1      91.515  89.563  85.028  1.00  0.00    -0.591 OA
HETATM   18  O   LIG     1      92.106  89.324  87.423  1.00  0.00    -0.591 OA
ENDBRANCH   5  15
TORSDOF 3
ENDMDL
MODEL 6
REMARK VINA RESULT:       0.0      5.721      6.805
REMARK  3 active torsions:
REMARK  status: ('A' for Active; 'I' for Inactive)
REMARK    1  A    between atoms: C_3  and  N_7 
REMARK    2  A    between atoms: C_5  and  S_15 
REMARK    3  A    between atoms: N_8  and  C_9 
ROOT
HETATM    1  C   LIG     1      86.559  88.301  91.760  1.00  0.00     0.022 A 
HETATM    2  C   LIG     1      86.950  87.281  92.648  1.00  0.00     0.015 A 
HETATM    3  C   LIG     1      85.367  89.020  91.985  1.00  0.00     0.103 A 
HETATM    4  C   LIG     1      84.547  88.691  93.090  1.00  0.00     0.022 A 
HETATM    5  C   LIG     1      86.142  86.975  93.762  1.00  0.00     0.104 A 
HETATM    6  C   LIG     1      84.936  87.672  93.980  1.00  0.00     0.015 A 
ENDROOT
BRANCH   3   7
HETATM    7  N   LIG     1      84.996  90.029  91.061  1.00  0.00    -0.148 NA
HETATM    8  N   LIG     1      85.152  91.251  91.318  1.00  0.00    -0.148 NA
BRANCH   8   9
HETATM    9  C   LIG     1      86.158  91.702  92.209  1.00  0.00     0.103 A 
HETATM   10  C   LIG     1      85.784  92.095  93.511  1.00  0.00     0.021 A 
HETATM   11  C   LIG     1      86.756  92.564  94.415  1.00  0.00     0.002 A 
HETATM   12  C   LIG     1      88.104  92.654  94.018  1.00  0.00     0.000 A 
HETATM   13  C   LIG     1      88.481  92.279  92.715  1.00  0.00     0.002 A 
HETATM   14  C   LIG     1      87.511  91.810  91.808  1.00  0.00     0.021 A 
ENDBRANCH   8   9
ENDBRANCH   3   7
BRANCH   5  15
HETATM   15  S   LIG     1      86.634  85.670  94.887  1.00  0.00     0.139 S 
HETATM   16  O   LIG     1      85.574  84.659  94.741  1.00  0.00    -0.591 OA
HETATM   17  O   LIG     1      86.670  86.333  96.201  1.00  0.00    -0.591 OA
HETATM   18  O   LIG     1      87.948  85.264  94.367  1.00  0.00    -0.591 OA
ENDBRANCH   5  15
TORSDOF 3
ENDMDL
MODEL 7
REMARK VINA RESULT:       0.0      7.770      9.521
REMARK  3 active torsions:
REMARK  status: ('A' for Active; 'I' for Inactive)
REMARK    1  A    between atoms: C_3  and  N_7 
REMARK    2  A    between atoms: C_5  and  S_15 
REMARK    3  A    between atoms: N_8  and  C_9 
ROOT
HETATM    1  C   LIG     1      88.964  91.763  91.082  1.00  0.00     0.022 A 
HETATM    2  C   LIG     1      90.347  91.584  90.883  1.00  0.00     0.015 A 
HETATM    3  C   LIG     1      88.439  93.054  91.296  1.00  0.00     0.103 A 
HETATM    4  C   LIG     1      89.311  94.167  91.345  1.00  0.00     0.022 A 
HETATM    5  C   LIG     1      91.207  92.700  90.907  1.00  0.00     0.104 A 
HETATM    6  C   LIG     1      90.694  93.991  91.146  1.00  0.00     0.015 A 
ENDROOT
BRANCH   3   7
HETATM    7  N   LIG     1      87.044  93.195  91.509  1.00  0.00    -0.148 NA
HETATM    8  N   LIG     1      86.277  93.616  90.605  1.00  0.00    -0.148 NA
BRANCH   8   9
HETATM    9  C   LIG     1      86.583  93.449  89.231  1.00  0.00     0.103 A 
HETATM   10  C   LIG     1      87.061  94.558  88.503  1.00  0.00     0.021 A 
HETATM   11  C   LIG     1      87.358  94.430  87.132  1.00  0.00     0.002 A 
HETATM   12  C   LIG     1      87.166  93.196  86.480  1.00  0.00     0.000 A 
HETATM   13  C   LIG     1      86.672  92.090  87.198  1.00  0.00     0.002 A 
HETATM   14  C   LIG     1      86.375  92.215  88.569  1.00  0.00     0.021 A 
ENDBRANCH   8   9
ENDBRANCH   3   7
BRANCH   5  15
HETATM   15  S   LIG     1      92.968  92.471  90.664  1.00  0.00     0.139 S 
HETATM   16  O   LIG     1      93.559  92.894  91.945  1.00  0.00    -0.591 OA
HETATM   17  O   LIG     1      93.284  93.349  89.526  1.00  0.00    -0.591 OA
HETATM   18  O   LIG     1      93.078  91.033  90.381  1.00  0.00    -0.591 OA
ENDBRANCH   5  15
TORSDOF 3
ENDMDL
MODEL 8
REMARK VINA RESULT:       0.0      4.805      6.594
REMARK  3 active torsions:
REMARK  status: ('A' for Active; 'I' for Inactive)
REMARK    1  A    between atoms: C_3  and  N_7 
REMARK    2  A    between atoms: C_5  and  S_15 
REMARK    3  A    between atoms: N_8  and  C_9 
ROOT
HETATM    1  C   LIG     1      84.864  90.630  88.946  1.00  0.00     0.022 A 
HETATM    2  C   LIG     1      85.363  90.232  90.201  1.00  0.00     0.015 A 
HETATM    3  C   LIG     1      85.743  91.103  87.949  1.00  0.00     0.103 A 
HETATM    4  C   LIG     1      87.127  91.208  88.226  1.00  0.00     0.022 A 
HETATM    5  C   LIG     1      86.746  90.315  90.462  1.00  0.00     0.104 A 
HETATM    6  C   LIG     1      87.629  90.810  89.480  1.00  0.00     0.015 A 
ENDROOT
BRANCH   3   7
HETATM    7  N   LIG     1      85.203  91.511  86.704  1.00  0.00    -0.148 NA
HETATM    8  N   LIG     1      85.287  90.787  85.678  1.00  0.00    -0.148 NA
BRANCH   8   9
HETATM    9  C   LIG     1      85.387  89.375  85.769  1.00  0.00     0.103 A 
HETATM   10  C   LIG     1      86.643  88.770  85.559  1.00  0.00     0.021 A 
HETATM   11  C   LIG     1      86.773  87.369  85.625  1.00  0.00     0.002 A 
HETATM   12  C   LIG     1      85.645  86.567  85.888  1.00  0.00     0.000 A 
HETATM   13  C   LIG     1      84.385  87.165  86.081  1.00  0.00     0.002 A 
HETATM   14  C   LIG     1      84.253  88.566  86.015  1.00  0.00     0.021 A 
ENDBRANCH   8   9
ENDBRANCH   3   7
BRANCH   5  15
HETATM   15  S   LIG     1      87.381  89.817  92.062  1.00  0.00     0.139 S 
HETATM   16  O   LIG     1      87.932  91.061  92.625  1.00  0.00    -0.591 OA
HETATM   17  O   LIG     1      88.388  88.794  91.739  1.00  0.00    -0.591 OA
HETATM   18  O   LIG     1      86.184  89.308  92.749  1.00  0.00    -0.591 OA
ENDBRANCH   5  15
TORSDOF 3
ENDMDL
MODEL 9
REMARK VINA RESULT:       0.0      8.911     10.291
REMARK  3 active torsions:
REMARK  status: ('A' for Active; 'I' for Inactive)
REMARK    1  A    between atoms: C_3  and  N_7 
REMARK    2  A    between atoms: C_5  and  S_15 
REMARK    3  A    between atoms: N_8  and  C_9 
ROOT
HETATM    1  C   LIG     1      93.507  88.044  90.819  1.00  0.00     0.022 A 
HETATM    2  C   LIG     1      92.972  88.867  91.828  1.00  0.00     0.015 A 
HETATM    3  C   LIG     1      92.810  87.864  89.606  1.00  0.00     0.103 A 
HETATM    4  C   LIG     1      91.553  88.487  89.420  1.00  0.00     0.022 A 
HETATM    5  C   LIG     1      91.732  89.506  91.626  1.00  0.00     0.104 A 
HETATM    6  C   LIG     1      91.017  89.312  90.427  1.00  0.00     0.015 A 
ENDROOT
BRANCH   3   7
HETATM    7  N   LIG     1      93.370  87.014  88.619  1.00  0.00    -0.148 NA
HETATM    8  N   LIG     1      93.943  87.475  87.599  1.00  0.00    -0.148 NA
BRANCH   8   9
HETATM    9  C   LIG     1      94.564  88.751  87.605  1.00  0.00     0.103 A 
HETATM   10  C   LIG     1      93.905  89.828  86.977  1.00  0.00     0.021 A 
HETATM   11  C   LIG     1      94.501  91.104  86.951  1.00  0.00     0.002 A 
HETATM   12  C   LIG     1      95.764  91.305  87.541  1.00  0.00     0.000 A 
HETATM   13  C   LIG     1      96.434  90.229  88.154  1.00  0.00     0.002 A 
HETATM   14  C   LIG     1      95.840  88.952  88.181  1.00  0.00     0.021 A 
ENDBRANCH   8   9
ENDBRANCH   3   7
BRANCH   5  15
HETATM   15  S   LIG     1      91.047  90.547  92.914  1.00  0.00     0.139 S 
HETATM   16  O   LIG     1      89.810  89.853  93.307  1.00  0.00    -0.591 OA
HETATM   17  O   LIG     1      90.837  91.841  92.247  1.00  0.00    -0.591 OA
HETATM   18  O   LIG     1      92.104  90.546  93.937  1.00  0.00    -0.591 OA
ENDBRANCH   5  15
TORSDOF 3
ENDMDL
