MODEL 1
REMARK VINA RESULT:      -0.0      0.000      0.000
REMARK  5 active torsions:
REMARK  status: ('A' for Active; 'I' for Inactive)
REMARK    1  A    between atoms: C_3  and  C_25 
REMARK    2  A    between atoms: C_17  and  O_32 
REMARK    3  A    between atoms: C_25  and  C_27 
REMARK    4  A    between atoms: C_27  and  C_28 
REMARK    5  A    between atoms: C_28  and  C_29 
ROOT
HETATM    1  O   LIG     1      85.798  88.544  87.692  1.00  0.00    -0.296 OA
HETATM    2  O   LIG     1      88.760  93.722  87.736  1.00  0.00    -0.296 OA
HETATM    3  C   LIG     1      85.743  91.733  91.460  1.00  0.00     0.000 C 
HETATM    4  C   LIG     1      86.103  93.238  91.318  1.00  0.00     0.000 C 
HETATM    5  C   LIG     1      86.582  91.062  90.323  1.00  0.00     0.007 C 
HETATM    6  C   LIG     1      86.012  89.715  89.780  1.00  0.00     0.065 C 
HETATM    7  C   LIG     1      86.421  89.388  88.331  1.00  0.00     0.151 C 
HETATM    8  C   LIG     1      86.810  93.423  89.962  1.00  0.00     0.000 C 
HETATM    9  C   LIG     1      86.497  92.134  89.180  1.00  0.00     0.007 C 
HETATM   10  C   LIG     1      87.606  90.190  87.748  1.00  0.00     0.065 C 
HETATM   11  C   LIG     1      87.372  91.736  87.927  1.00  0.00     0.065 C 
HETATM   12  C   LIG     1      88.177  89.817  86.326  1.00  0.00     0.007 C 
HETATM   13  C   LIG     1      87.058  90.043  85.262  1.00  0.00     0.003 C 
HETATM   14  C   LIG     1      87.546  90.295  83.843  1.00  0.00     0.029 C 
HETATM   15  C   LIG     1      88.677  92.498  87.676  1.00  0.00     0.151 C 
HETATM   16  C   LIG     1      89.522  90.654  86.086  1.00  0.00     0.010 C 
HETATM   17  C   LIG     1      88.519  91.472  83.840  1.00  0.00     0.111 C 
HETATM   18  C   LIG     1      89.863  91.649  87.243  1.00  0.00     0.065 C 
HETATM   19  C   LIG     1      89.828  91.156  84.610  1.00  0.00     0.025 C 
HETATM   20  C   LIG     1      90.712  92.429  84.593  1.00  0.00     0.002 C 
HETATM   21  C   LIG     1      90.656  90.073  83.863  1.00  0.00     0.002 C 
HETATM   22  C   LIG     1      88.564  88.313  86.294  1.00  0.00     0.000 C 
HETATM   23  C   LIG     1      88.034  90.863  90.869  1.00  0.00     0.000 C 
HETATM   24  C   LIG     1      85.053  92.347  88.611  1.00  0.00     0.000 C 
ENDROOT
BRANCH   3  25
HETATM   25  C   LIG     1      85.864  91.218  92.930  1.00  0.00     0.001 C 
HETATM   26  C   LIG     1      85.968  92.410  93.909  1.00  0.00     0.000 C 
BRANCH  25  27
HETATM   27  C   LIG     1      84.694  90.289  93.349  1.00  0.00     0.011 C 
BRANCH  27  28
HETATM   28  C   LIG     1      84.925  88.767  93.192  1.00  0.00     0.098 C 
BRANCH  28  29
HETATM   29  C   LIG     1      86.341  88.323  93.582  1.00  0.00     0.185 C 
HETATM   30  O   LIG     1      87.106  87.930  92.673  1.00  0.00    -0.647 OA
HETATM   31  O   LIG     1      86.628  88.370  94.798  1.00  0.00    -0.647 OA
ENDBRANCH  28  29
ENDBRANCH  27  28
ENDBRANCH  25  27
ENDBRANCH   3  25
BRANCH  17  32
HETATM   32  O   LIG     1      88.765  91.830  82.493  1.00  0.00    -0.385 OA
HETATM   33  H   LIG     1      89.233  92.650  82.482  1.00  0.00     0.210 HD
ENDBRANCH  17  32
TORSDOF 5
ENDMDL
MODEL 2
REMARK VINA RESULT:      -0.0      9.582     12.388
REMARK  5 active torsions:
REMARK  status: ('A' for Active; 'I' for Inactive)
REMARK    1  A    between atoms: C_3  and  C_25 
REMARK    2  A    between atoms: C_17  and  O_32 
REMARK    3  A    between atoms: C_25  and  C_27 
REMARK    4  A    between atoms: C_27  and  C_28 
REMARK    5  A    between atoms: C_28  and  C_29 
ROOT
HETATM    1  O   LIG     1      92.412  92.157  97.765  1.00  0.00    -0.296 OA
HETATM    2  O   LIG     1      95.693  96.810  95.984  1.00  0.00    -0.296 OA
HETATM    3  C   LIG     1      97.245  91.925  96.793  1.00  0.00     0.000 C 
HETATM    4  C   LIG     1      98.182  93.165  96.787  1.00  0.00     0.000 C 
HETATM    5  C   LIG     1      95.857  92.531  96.401  1.00  0.00     0.007 C 
HETATM    6  C   LIG     1      94.615  91.733  96.905  1.00  0.00     0.065 C 
HETATM    7  C   LIG     1      93.344  92.583  97.086  1.00  0.00     0.151 C 
HETATM    8  C   LIG     1      97.292  94.422  96.750  1.00  0.00     0.000 C 
HETATM    9  C   LIG     1      95.889  93.918  97.135  1.00  0.00     0.007 C 
HETATM   10  C   LIG     1      93.334  93.970  96.407  1.00  0.00     0.065 C 
HETATM   11  C   LIG     1      94.616  94.792  96.805  1.00  0.00     0.065 C 
HETATM   12  C   LIG     1      92.018  94.840  96.424  1.00  0.00     0.007 C 
HETATM   13  C   LIG     1      91.665  95.185  97.905  1.00  0.00     0.003 C 
HETATM   14  C   LIG     1      90.819  96.434  98.101  1.00  0.00     0.029 C 
HETATM   15  C   LIG     1      94.778  95.997  95.874  1.00  0.00     0.151 C 
HETATM   16  C   LIG     1      92.237  96.105  95.465  1.00  0.00     0.010 C 
HETATM   17  C   LIG     1      91.506  97.625  97.434  1.00  0.00     0.111 C 
HETATM   18  C   LIG     1      93.671  96.193  94.850  1.00  0.00     0.065 C 
HETATM   19  C   LIG     1      91.565  97.480  95.890  1.00  0.00     0.025 C 
HETATM   20  C   LIG     1      92.327  98.707  95.325  1.00  0.00     0.002 C 
HETATM   21  C   LIG     1      90.140  97.566  95.276  1.00  0.00     0.002 C 
HETATM   22  C   LIG     1      90.839  94.019  95.834  1.00  0.00     0.000 C 
HETATM   23  C   LIG     1      95.829  92.664  94.842  1.00  0.00     0.000 C 
HETATM   24  C   LIG     1      95.911  93.812  98.697  1.00  0.00     0.000 C 
ENDROOT
BRANCH   3  25
HETATM   25  C   LIG     1      97.830  90.722  95.985  1.00  0.00     0.001 C 
HETATM   26  C   LIG     1      99.329  90.953  95.689  1.00  0.00     0.000 C 
BRANCH  25  27
HETATM   27  C   LIG     1      97.636  89.357  96.699  1.00  0.00     0.011 C 
BRANCH  27  28
HETATM   28  C   LIG     1      96.387  88.536  96.297  1.00  0.00     0.098 C 
BRANCH  28  29
HETATM   29  C   LIG     1      96.082  88.587  94.795  1.00  0.00     0.185 C 
HETATM   30  O   LIG     1      95.060  89.206  94.422  1.00  0.00    -0.647 OA
HETATM   31  O   LIG     1      96.876  87.985  94.040  1.00  0.00    -0.647 OA
ENDBRANCH  28  29
ENDBRANCH  27  28
ENDBRANCH  25  27
ENDBRANCH   3  25
BRANCH  17  32
HETATM   32  O   LIG     1      90.826  98.800  97.835  1.00  0.00    -0.385 OA
HETATM   33  H   LIG     1      89.904  98.606  97.893  1.00  0.00     0.210 HD
ENDBRANCH  17  32
TORSDOF 5
ENDMDL
MODEL 3
REMARK VINA RESULT:      -0.0      5.929      9.319
REMARK  5 active torsions:
REMARK  status: ('A' for Active; 'I' for Inactive)
REMARK    1  A    between atoms: C_3  and  C_25 
REMARK    2  A    between atoms: C_17  and  O_32 
REMARK    3  A    between atoms: C_25  and  C_27 
REMARK    4  A    between atoms: C_27  and  C_28 
REMARK    5  A    between atoms: C_28  and  C_29 
ROOT
HETATM    1  O   LIG     1      95.364  88.125  88.045  1.00  0.00    -0.296 OA
HETATM    2  O   LIG     1      92.888  90.641  92.855  1.00  0.00    -0.296 OA
HETATM    3  C   LIG     1      92.645  92.243  87.925  1.00  0.00     0.000 C 
HETATM    4  C   LIG     1      92.395  93.146  89.166  1.00  0.00     0.000 C 
HETATM    5  C   LIG     1      92.851  90.827  88.557  1.00  0.00     0.007 C 
HETATM    6  C   LIG     1      93.713  89.839  87.710  1.00  0.00     0.065 C 
HETATM    7  C   LIG     1      94.426  88.750  88.534  1.00  0.00     0.151 C 
HETATM    8  C   LIG     1      92.799  92.342  90.416  1.00  0.00     0.000 C 
HETATM    9  C   LIG     1      93.635  91.169  89.872  1.00  0.00     0.007 C 
HETATM   10  C   LIG     1      93.919  88.528  89.976  1.00  0.00     0.065 C 
HETATM   11  C   LIG     1      93.879  89.889  90.766  1.00  0.00     0.065 C 
HETATM   12  C   LIG     1      94.498  87.339  90.835  1.00  0.00     0.007 C 
HETATM   13  C   LIG     1      96.027  87.571  91.044  1.00  0.00     0.003 C 
HETATM   14  C   LIG     1      96.629  86.894  92.267  1.00  0.00     0.029 C 
HETATM   15  C   LIG     1      93.059  89.728  92.050  1.00  0.00     0.151 C 
HETATM   16  C   LIG     1      93.637  87.221  92.181  1.00  0.00     0.010 C 
HETATM   17  C   LIG     1      95.858  87.318  93.515  1.00  0.00     0.111 C 
HETATM   18  C   LIG     1      92.542  88.326  92.330  1.00  0.00     0.065 C 
HETATM   19  C   LIG     1      94.397  86.795  93.509  1.00  0.00     0.025 C 
HETATM   20  C   LIG     1      93.694  87.327  94.785  1.00  0.00     0.002 C 
HETATM   21  C   LIG     1      94.368  85.246  93.642  1.00  0.00     0.002 C 
HETATM   22  C   LIG     1      94.323  86.002  90.063  1.00  0.00     0.000 C 
HETATM   23  C   LIG     1      91.433  90.225  88.827  1.00  0.00     0.000 C 
HETATM   24  C   LIG     1      95.062  91.766  89.628  1.00  0.00     0.000 C 
ENDROOT
BRANCH   3  25
HETATM   25  C   LIG     1      91.579  92.451  86.802  1.00  0.00     0.001 C 
HETATM   26  C   LIG     1      90.766  93.739  87.066  1.00  0.00     0.000 C 
BRANCH  25  27
HETATM   27  C   LIG     1      92.195  92.498  85.378  1.00  0.00     0.011 C 
BRANCH  27  28
HETATM   28  C   LIG     1      92.220  91.167  84.589  1.00  0.00     0.098 C 
BRANCH  28  29
HETATM   29  C   LIG     1      90.950  90.326  84.772  1.00  0.00     0.185 C 
HETATM   30  O   LIG     1      91.039  89.258  85.417  1.00  0.00    -0.647 OA
HETATM   31  O   LIG     1      89.906  90.766  84.243  1.00  0.00    -0.647 OA
ENDBRANCH  28  29
ENDBRANCH  27  28
ENDBRANCH  25  27
ENDBRANCH   3  25
BRANCH  17  32
HETATM   32  O   LIG     1      96.581  86.869  94.646  1.00  0.00    -0.385 OA
HETATM   33  H   LIG     1      97.077  87.596  94.991  1.00  0.00     0.210 HD
ENDBRANCH  17  32
TORSDOF 5
ENDMDL
MODEL 4
REMARK VINA RESULT:      -0.0      7.539      9.535
REMARK  5 active torsions:
REMARK  status: ('A' for Active; 'I' for Inactive)
REMARK    1  A    between atoms: C_3  and  C_25 
REMARK    2  A    between atoms: C_17  and  O_32 
REMARK    3  A    between atoms: C_25  and  C_27 
REMARK    4  A    between atoms: C_27  and  C_28 
REMARK    5  A    between atoms: C_28  and  C_29 
ROOT
HETATM    1  O   LIG     1      94.179  87.594  94.611  1.00  0.00    -0.296 OA
HETATM    2  O   LIG     1      95.729  86.942  88.887  1.00  0.00    -0.296 OA
HETATM    3  C   LIG     1      91.715  84.794  91.378  1.00  0.00     0.000 C 
HETATM    4  C   LIG     1      92.337  84.251  90.062  1.00  0.00     0.000 C 
HETATM    5  C   LIG     1      92.514  86.116  91.625  1.00  0.00     0.007 C 
HETATM    6  C   LIG     1      92.600  86.575  93.114  1.00  0.00     0.065 C 
HETATM    7  C   LIG     1      93.830  87.441  93.443  1.00  0.00     0.151 C 
HETATM    8  C   LIG     1      93.637  85.035  89.801  1.00  0.00     0.000 C 
HETATM    9  C   LIG     1      93.954  85.720  91.143  1.00  0.00     0.007 C 
HETATM   10  C   LIG     1      94.587  88.055  92.245  1.00  0.00     0.065 C 
HETATM   11  C   LIG     1      94.952  86.944  91.191  1.00  0.00     0.065 C 
HETATM   12  C   LIG     1      95.769  89.068  92.502  1.00  0.00     0.007 C 
HETATM   13  C   LIG     1      96.903  88.327  93.276  1.00  0.00     0.003 C 
HETATM   14  C   LIG     1      98.296  88.917  93.116  1.00  0.00     0.029 C 
HETATM   15  C   LIG     1      95.377  87.592  89.869  1.00  0.00     0.151 C 
HETATM   16  C   LIG     1      96.206  89.700  91.096  1.00  0.00     0.010 C 
HETATM   17  C   LIG     1      98.645  89.006  91.632  1.00  0.00     0.111 C 
HETATM   18  C   LIG     1      95.436  89.112  89.870  1.00  0.00     0.065 C 
HETATM   19  C   LIG     1      97.746  90.020  90.876  1.00  0.00     0.025 C 
HETATM   20  C   LIG     1      98.145  89.988  89.378  1.00  0.00     0.002 C 
HETATM   21  C   LIG     1      98.040  91.472  91.347  1.00  0.00     0.002 C 
HETATM   22  C   LIG     1      95.271  90.238  93.394  1.00  0.00     0.000 C 
HETATM   23  C   LIG     1      91.858  87.230  90.745  1.00  0.00     0.000 C 
HETATM   24  C   LIG     1      94.636  84.611  92.013  1.00  0.00     0.000 C 
ENDROOT
BRANCH   3  25
HETATM   25  C   LIG     1      90.153  84.818  91.344  1.00  0.00     0.001 C 
HETATM   26  C   LIG     1      89.629  83.976  90.159  1.00  0.00     0.000 C 
BRANCH  25  27
HETATM   27  C   LIG     1      89.507  84.329  92.668  1.00  0.00     0.011 C 
BRANCH  27  28
HETATM   28  C   LIG     1      89.129  85.419  93.700  1.00  0.00     0.098 C 
BRANCH  28  29
HETATM   29  C   LIG     1      88.539  86.683  93.062  1.00  0.00     0.185 C 
HETATM   30  O   LIG     1      89.221  87.731  93.093  1.00  0.00    -0.647 OA
HETATM   31  O   LIG     1      87.397  86.580  92.564  1.00  0.00    -0.647 OA
ENDBRANCH  28  29
ENDBRANCH  27  28
ENDBRANCH  25  27
ENDBRANCH   3  25
BRANCH  17  32
HETATM   32  O   LIG     1     100.020  89.329  91.527  1.00  0.00    -0.385 OA
HETATM   33  H   LIG     1     100.139  90.223  91.806  1.00  0.00     0.210 HD
ENDBRANCH  17  32
TORSDOF 5
ENDMDL
MODEL 5
REMARK VINA RESULT:      -0.0      7.492     10.835
REMARK  5 active torsions:
REMARK  status: ('A' for Active; 'I' for Inactive)
REMARK    1  A    between atoms: C_3  and  C_25 
REMARK    2  A    between atoms: C_17  and  O_32 
REMARK    3  A    between atoms: C_25  and  C_27 
REMARK    4  A    between atoms: C_27  and  C_28 
REMARK    5  A    between atoms: C_28  and  C_29 
ROOT
HETATM    1  O   LIG     1      92.895  92.238  91.477  1.00  0.00    -0.296 OA
HETATM    2  O   LIG     1      98.779  92.455  90.516  1.00  0.00    -0.296 OA
HETATM    3  C   LIG     1      95.259  89.468  88.145  1.00  0.00     0.000 C 
HETATM    4  C   LIG     1      96.784  89.171  88.200  1.00  0.00     0.000 C 
HETATM    5  C   LIG     1      95.147  90.860  88.849  1.00  0.00     0.007 C 
HETATM    6  C   LIG     1      93.768  91.162  89.513  1.00  0.00     0.065 C 
HETATM    7  C   LIG     1      93.830  92.162  90.683  1.00  0.00     0.151 C 
HETATM    8  C   LIG     1      97.418  90.166  89.190  1.00  0.00     0.000 C 
HETATM    9  C   LIG     1      96.228  90.741  89.980  1.00  0.00     0.007 C 
HETATM   10  C   LIG     1      95.116  93.010  90.803  1.00  0.00     0.065 C 
HETATM   11  C   LIG     1      96.392  92.088  90.788  1.00  0.00     0.065 C 
HETATM   12  C   LIG     1      95.200  94.155  91.885  1.00  0.00     0.007 C 
HETATM   13  C   LIG     1      95.083  93.514  93.303  1.00  0.00     0.003 C 
HETATM   14  C   LIG     1      95.695  94.321  94.437  1.00  0.00     0.029 C 
HETATM   15  C   LIG     1      97.648  92.933  90.554  1.00  0.00     0.151 C 
HETATM   16  C   LIG     1      96.539  94.996  91.627  1.00  0.00     0.010 C 
HETATM   17  C   LIG     1      97.157  94.623  94.117  1.00  0.00     0.111 C 
HETATM   18  C   LIG     1      97.426  94.435  90.469  1.00  0.00     0.065 C 
HETATM   19  C   LIG     1      97.309  95.566  92.894  1.00  0.00     0.025 C 
HETATM   20  C   LIG     1      98.824  95.758  92.624  1.00  0.00     0.002 C 
HETATM   21  C   LIG     1      96.770  96.986  93.225  1.00  0.00     0.002 C 
HETATM   22  C   LIG     1      94.006  95.133  91.706  1.00  0.00     0.000 C 
HETATM   23  C   LIG     1      95.493  91.952  87.784  1.00  0.00     0.000 C 
HETATM   24  C   LIG     1      95.901  89.659  91.064  1.00  0.00     0.000 C 
ENDROOT
BRANCH   3  25
HETATM   25  C   LIG     1      94.653  89.260  86.720  1.00  0.00     0.001 C 
HETATM   26  C   LIG     1      95.644  88.483  85.824  1.00  0.00     0.000 C 
BRANCH  25  27
HETATM   27  C   LIG     1      93.280  88.538  86.741  1.00  0.00     0.011 C 
BRANCH  27  28
HETATM   28  C   LIG     1      92.022  89.439  86.737  1.00  0.00     0.098 C 
BRANCH  28  29
HETATM   29  C   LIG     1      92.151  90.662  85.820  1.00  0.00     0.185 C 
HETATM   30  O   LIG     1      92.230  91.791  86.353  1.00  0.00    -0.647 OA
HETATM   31  O   LIG     1      92.154  90.443  84.590  1.00  0.00    -0.647 OA
ENDBRANCH  28  29
ENDBRANCH  27  28
ENDBRANCH  25  27
ENDBRANCH   3  25
BRANCH  17  32
HETATM   32  O   LIG     1      97.757  95.158  95.282  1.00  0.00    -0.385 OA
HETATM   33  H   LIG     1      98.063  94.442  95.816  1.00  0.00     0.210 HD
ENDBRANCH  17  32
TORSDOF 5
ENDMDL
MODEL 6
REMARK VINA RESULT:      -0.0      3.458      5.648
REMARK  5 active torsions:
REMARK  status: ('A' for Active; 'I' for Inactive)
REMARK    1  A    between atoms: C_3  and  C_25 
REMARK    2  A    between atoms: C_17  and  O_32 
REMARK    3  A    between atoms: C_25  and  C_27 
REMARK    4  A    between atoms: C_27  and  C_28 
REMARK    5  A    between atoms: C_28  and  C_29 
ROOT
HETATM    1  O   LIG     1      83.592  91.542  92.622  1.00  0.00    -0.296 OA
HETATM    2  O   LIG     1      85.994  90.262  87.312  1.00  0.00    -0.296 OA
HETATM    3  C   LIG     1      87.624  88.762  92.005  1.00  0.00     0.000 C 
HETATM    4  C   LIG     1      88.509  88.801  90.728  1.00  0.00     0.000 C 
HETATM    5  C   LIG     1      86.210  89.158  91.465  1.00  0.00     0.007 C 
HETATM    6  C   LIG     1      85.256  89.811  92.513  1.00  0.00     0.065 C 
HETATM    7  C   LIG     1      84.184  90.736  91.907  1.00  0.00     0.151 C 
HETATM    8  C   LIG     1      87.709  89.524  89.628  1.00  0.00     0.000 C 
HETATM    9  C   LIG     1      86.567  90.233  90.379  1.00  0.00     0.007 C 
HETATM   10  C   LIG     1      83.936  90.609  90.387  1.00  0.00     0.065 C 
HETATM   11  C   LIG     1      85.289  90.726  89.592  1.00  0.00     0.065 C 
HETATM   12  C   LIG     1      82.758  91.416  89.717  1.00  0.00     0.007 C 
HETATM   13  C   LIG     1      83.037  92.942  89.888  1.00  0.00     0.003 C 
HETATM   14  C   LIG     1      82.371  93.847  88.862  1.00  0.00     0.029 C 
HETATM   15  C   LIG     1      85.093  90.255  88.148  1.00  0.00     0.151 C 
HETATM   16  C   LIG     1      82.604  90.919  88.201  1.00  0.00     0.010 C 
HETATM   17  C   LIG     1      82.760  93.397  87.456  1.00  0.00     0.111 C 
HETATM   18  C   LIG     1      83.673  89.863  87.770  1.00  0.00     0.065 C 
HETATM   19  C   LIG     1      82.192  91.995  87.108  1.00  0.00     0.025 C 
HETATM   20  C   LIG     1      82.692  91.615  85.691  1.00  0.00     0.002 C 
HETATM   21  C   LIG     1      80.642  92.043  86.996  1.00  0.00     0.002 C 
HETATM   22  C   LIG     1      81.423  91.094  90.441  1.00  0.00     0.000 C 
HETATM   23  C   LIG     1      85.562  87.868  90.862  1.00  0.00     0.000 C 
HETATM   24  C   LIG     1      87.210  91.537  90.959  1.00  0.00     0.000 C 
ENDROOT
BRANCH   3  25
HETATM   25  C   LIG     1      87.807  87.446  92.827  1.00  0.00     0.001 C 
HETATM   26  C   LIG     1      89.067  86.687  92.351  1.00  0.00     0.000 C 
BRANCH  25  27
HETATM   27  C   LIG     1      87.883  87.689  94.358  1.00  0.00     0.011 C 
BRANCH  27  28
HETATM   28  C   LIG     1      86.559  87.556  95.148  1.00  0.00     0.098 C 
BRANCH  28  29
HETATM   29  C   LIG     1      85.678  86.395  94.670  1.00  0.00     0.185 C 
HETATM   30  O   LIG     1      84.608  86.671  94.083  1.00  0.00    -0.647 OA
HETATM   31  O   LIG     1      86.089  85.241  94.918  1.00  0.00    -0.647 OA
ENDBRANCH  28  29
ENDBRANCH  27  28
ENDBRANCH  25  27
ENDBRANCH   3  25
BRANCH  17  32
HETATM   32  O   LIG     1      82.327  94.390  86.545  1.00  0.00    -0.385 OA
HETATM   33  H   LIG     1      82.661  94.175  85.688  1.00  0.00     0.210 HD
ENDBRANCH  17  32
TORSDOF 5
ENDMDL
MODEL 7
REMARK VINA RESULT:      -0.0      2.975      7.135
REMARK  5 active torsions:
REMARK  status: ('A' for Active; 'I' for Inactive)
REMARK    1  A    between atoms: C_3  and  C_25 
REMARK    2  A    between atoms: C_17  and  O_32 
REMARK    3  A    between atoms: C_25  and  C_27 
REMARK    4  A    between atoms: C_27  and  C_28 
REMARK    5  A    between atoms: C_28  and  C_29 
ROOT
HETATM    1  O   LIG     1      85.430  91.942  87.519  1.00  0.00    -0.296 OA
HETATM    2  O   LIG     1      85.895  88.220  92.159  1.00  0.00    -0.296 OA
HETATM    3  C   LIG     1      89.671  90.905  89.822  1.00  0.00     0.000 C 
HETATM    4  C   LIG     1      89.891  89.633  90.689  1.00  0.00     0.000 C 
HETATM    5  C   LIG     1      88.135  91.163  89.959  1.00  0.00     0.007 C 
HETATM    6  C   LIG     1      87.480  91.937  88.773  1.00  0.00     0.065 C 
HETATM    7  C   LIG     1      85.978  91.656  88.581  1.00  0.00     0.151 C 
HETATM    8  C   LIG     1      88.507  89.026  90.986  1.00  0.00     0.000 C 
HETATM    9  C   LIG     1      87.560  89.702  89.977  1.00  0.00     0.007 C 
HETATM   10  C   LIG     1      85.242  90.984  89.762  1.00  0.00     0.065 C 
HETATM   11  C   LIG     1      86.000  89.683  90.220  1.00  0.00     0.065 C 
HETATM   12  C   LIG     1      83.677  90.793  89.701  1.00  0.00     0.007 C 
HETATM   13  C   LIG     1      83.335  89.849  88.506  1.00  0.00     0.003 C 
HETATM   14  C   LIG     1      82.013  89.104  88.620  1.00  0.00     0.029 C 
HETATM   15  C   LIG     1      85.479  89.225  91.586  1.00  0.00     0.151 C 
HETATM   16  C   LIG     1      83.174  90.284  91.134  1.00  0.00     0.010 C 
HETATM   17  C   LIG     1      81.980  88.323  89.931  1.00  0.00     0.111 C 
HETATM   18  C   LIG     1      84.328  90.038  92.159  1.00  0.00     0.065 C 
HETATM   19  C   LIG     1      81.964  89.256  91.171  1.00  0.00     0.025 C 
HETATM   20  C   LIG     1      81.989  88.365  92.440  1.00  0.00     0.002 C 
HETATM   21  C   LIG     1      80.626  90.042  91.250  1.00  0.00     0.002 C 
HETATM   22  C   LIG     1      82.992  92.161  89.435  1.00  0.00     0.000 C 
HETATM   23  C   LIG     1      87.908  91.927  91.305  1.00  0.00     0.000 C 
HETATM   24  C   LIG     1      87.768  88.919  88.637  1.00  0.00     0.000 C 
ENDROOT
BRANCH   3  25
HETATM   25  C   LIG     1      90.689  92.044  90.151  1.00  0.00     0.001 C 
HETATM   26  C   LIG     1      91.859  91.491  90.995  1.00  0.00     0.000 C 
BRANCH  25  27
HETATM   27  C   LIG     1      91.239  92.753  88.885  1.00  0.00     0.011 C 
BRANCH  27  28
HETATM   28  C   LIG     1      90.510  94.044  88.440  1.00  0.00     0.098 C 
BRANCH  28  29
HETATM   29  C   LIG     1      90.086  94.939  89.612  1.00  0.00     0.185 C 
HETATM   30  O   LIG     1      88.865  95.044  89.861  1.00  0.00    -0.647 OA
HETATM   31  O   LIG     1      91.002  95.520  90.234  1.00  0.00    -0.647 OA
ENDBRANCH  28  29
ENDBRANCH  27  28
ENDBRANCH  25  27
ENDBRANCH   3  25
BRANCH  17  32
HETATM   32  O   LIG     1      80.857  87.461  89.897  1.00  0.00    -0.385 OA
HETATM   33  H   LIG     1      80.913  86.869  90.630  1.00  0.00     0.210 HD
ENDBRANCH  17  32
TORSDOF 5
ENDMDL
MODEL 8
REMARK VINA RESULT:      -0.0      6.391      8.548
REMARK  5 active torsions:
REMARK  status: ('A' for Active; 'I' for Inactive)
REMARK    1  A    between atoms: C_3  and  C_25 
REMARK    2  A    between atoms: C_17  and  O_32 
REMARK    3  A    between atoms: C_25  and  C_27 
REMARK    4  A    between atoms: C_27  and  C_28 
REMARK    5  A    between atoms: C_28  and  C_29 
ROOT
HETATM    1  O   LIG     1      92.754  90.086  91.173  1.00  0.00    -0.296 OA
HETATM    2  O   LIG     1      93.063  87.547  85.783  1.00  0.00    -0.296 OA
HETATM    3  C   LIG     1      96.656  87.549  89.528  1.00  0.00     0.000 C 
HETATM    4  C   LIG     1      96.943  87.294  88.022  1.00  0.00     0.000 C 
HETATM    5  C   LIG     1      95.097  87.673  89.573  1.00  0.00     0.007 C 
HETATM    6  C   LIG     1      94.529  88.522  90.752  1.00  0.00     0.065 C 
HETATM    7  C   LIG     1      93.154  89.158  90.474  1.00  0.00     0.151 C 
HETATM    8  C   LIG     1      95.656  87.618  87.240  1.00  0.00     0.000 C 
HETATM    9  C   LIG     1      94.792  88.422  88.228  1.00  0.00     0.007 C 
HETATM   10  C   LIG     1      92.356  88.591  89.279  1.00  0.00     0.065 C 
HETATM   11  C   LIG     1      93.240  88.580  87.977  1.00  0.00     0.065 C 
HETATM   12  C   LIG     1      90.883  89.088  89.016  1.00  0.00     0.007 C 
HETATM   13  C   LIG     1      90.919  90.617  88.704  1.00  0.00     0.003 C 
HETATM   14  C   LIG     1      89.748  91.145  87.890  1.00  0.00     0.029 C 
HETATM   15  C   LIG     1      92.582  87.708  86.903  1.00  0.00     0.151 C 
HETATM   16  C   LIG     1      90.239  88.175  87.867  1.00  0.00     0.010 C 
HETATM   17  C   LIG     1      89.628  90.348  86.592  1.00  0.00     0.111 C 
HETATM   18  C   LIG     1      91.227  87.123  87.268  1.00  0.00     0.065 C 
HETATM   19  C   LIG     1      89.239  88.867  86.846  1.00  0.00     0.025 C 
HETATM   20  C   LIG     1      89.202  88.142  85.476  1.00  0.00     0.002 C 
HETATM   21  C   LIG     1      87.790  88.768  87.401  1.00  0.00     0.002 C 
HETATM   22  C   LIG     1      90.025  88.885  90.295  1.00  0.00     0.000 C 
HETATM   23  C   LIG     1      94.514  86.222  89.611  1.00  0.00     0.000 C 
HETATM   24  C   LIG     1      95.358  89.881  88.168  1.00  0.00     0.000 C 
ENDROOT
BRANCH   3  25
HETATM   25  C   LIG     1      97.387  86.535  90.464  1.00  0.00     0.001 C 
HETATM   26  C   LIG     1      98.475  85.767  89.678  1.00  0.00     0.000 C 
BRANCH  25  27
HETATM   27  C   LIG     1      98.014  87.203  91.717  1.00  0.00     0.011 C 
BRANCH  27  28
HETATM   28  C   LIG     1      97.157  87.200  93.006  1.00  0.00     0.098 C 
BRANCH  28  29
HETATM   29  C   LIG     1      96.390  85.890  93.225  1.00  0.00     0.185 C 
HETATM   30  O   LIG     1      95.145  85.910  93.108  1.00  0.00    -0.647 OA
HETATM   31  O   LIG     1      97.071  84.885  93.525  1.00  0.00    -0.647 OA
ENDBRANCH  28  29
ENDBRANCH  27  28
ENDBRANCH  25  27
ENDBRANCH   3  25
BRANCH  17  32
HETATM   32  O   LIG     1      88.696  91.011  85.759  1.00  0.00    -0.385 OA
HETATM   33  H   LIG     1      88.090  91.485  86.306  1.00  0.00     0.210 HD
ENDBRANCH  17  32
TORSDOF 5
ENDMDL
MODEL 9
REMARK VINA RESULT:      -0.0      5.778      8.388
REMARK  5 active torsions:
REMARK  status: ('A' for Active; 'I' for Inactive)
REMARK    1  A    between atoms: C_3  and  C_25 
REMARK    2  A    between atoms: C_17  and  O_32 
REMARK    3  A    between atoms: C_25  and  C_27 
REMARK    4  A    between atoms: C_27  and  C_28 
REMARK    5  A    between atoms: C_28  and  C_29 
ROOT
HETATM    1  O   LIG     1      87.001  84.400  91.250  1.00  0.00    -0.296 OA
HETATM    2  O   LIG     1      88.120  85.507  85.496  1.00  0.00    -0.296 OA
HETATM    3  C   LIG     1      91.482  85.414  89.448  1.00  0.00     0.000 C 
HETATM    4  C   LIG     1      91.721  86.142  88.095  1.00  0.00     0.000 C 
HETATM    5  C   LIG     1      90.111  84.695  89.223  1.00  0.00     0.007 C 
HETATM    6  C   LIG     1      89.289  84.408  90.517  1.00  0.00     0.065 C 
HETATM    7  C   LIG     1      87.769  84.305  90.296  1.00  0.00     0.151 C 
HETATM    8  C   LIG     1      90.395  86.120  87.313  1.00  0.00     0.000 C 
HETATM    9  C   LIG     1      89.330  85.749  88.361  1.00  0.00     0.007 C 
HETATM   10  C   LIG     1      87.291  84.112  88.839  1.00  0.00     0.065 C 
HETATM   11  C   LIG     1      87.919  85.208  87.900  1.00  0.00     0.065 C 
HETATM   12  C   LIG     1      85.763  83.854  88.544  1.00  0.00     0.007 C 
HETATM   13  C   LIG     1      84.947  85.102  89.007  1.00  0.00     0.003 C 
HETATM   14  C   LIG     1      83.606  85.297  88.316  1.00  0.00     0.029 C 
HETATM   15  C   LIG     1      87.733  84.811  86.432  1.00  0.00     0.151 C 
HETATM   16  C   LIG     1      85.605  83.474  86.996  1.00  0.00     0.010 C 
HETATM   17  C   LIG     1      83.812  85.336  86.804  1.00  0.00     0.111 C 
HETATM   18  C   LIG     1      86.942  83.535  86.189  1.00  0.00     0.065 C 
HETATM   19  C   LIG     1      84.300  83.974  86.241  1.00  0.00     0.025 C 
HETATM   20  C   LIG     1      84.530  84.142  84.717  1.00  0.00     0.002 C 
HETATM   21  C   LIG     1      83.188  82.896  86.371  1.00  0.00     0.002 C 
HETATM   22  C   LIG     1      85.269  82.633  89.368  1.00  0.00     0.000 C 
HETATM   23  C   LIG     1      90.401  83.366  88.450  1.00  0.00     0.000 C 
HETATM   24  C   LIG     1      89.020  87.086  89.115  1.00  0.00     0.000 C 
ENDROOT
BRANCH   3  25
HETATM   25  C   LIG     1      92.726  84.596  89.922  1.00  0.00     0.001 C 
HETATM   26  C   LIG     1      93.977  85.003  89.109  1.00  0.00     0.000 C 
BRANCH  25  27
HETATM   27  C   LIG     1      93.011  84.744  91.440  1.00  0.00     0.011 C 
BRANCH  27  28
HETATM   28  C   LIG     1      92.412  83.659  92.367  1.00  0.00     0.098 C 
BRANCH  28  29
HETATM   29  C   LIG     1      92.489  82.244  91.778  1.00  0.00     0.185 C 
HETATM   30  O   LIG     1      91.421  81.693  91.430  1.00  0.00    -0.647 OA
HETATM   31  O   LIG     1      93.626  81.730  91.701  1.00  0.00    -0.647 OA
ENDBRANCH  28  29
ENDBRANCH  27  28
ENDBRANCH  25  27
ENDBRANCH   3  25
BRANCH  17  32
HETATM   32  O   LIG     1      82.597  85.755  86.209  1.00  0.00    -0.385 OA
HETATM   33  H   LIG     1      82.118  84.987  85.938  1.00  0.00     0.210 HD
ENDBRANCH  17  32
TORSDOF 5
ENDMDL
