MODEL 1
REMARK VINA RESULT:      -0.0      0.000      0.000
REMARK  3 active torsions:
REMARK  status: ('A' for Active; 'I' for Inactive)
REMARK    1  A    between atoms: C_3  and  N_7 
REMARK    2  A    between atoms: C_5  and  S_15 
REMARK    3  A    between atoms: N_8  and  C_9 
ROOT
HETATM    1  C   LIG     1      97.794  85.242  90.592  1.00  0.00     0.022 A 
HETATM    2  C   LIG     1      97.599  83.857  90.763  1.00  0.00     0.015 A 
HETATM    3  C   LIG     1      98.670  85.717  89.594  1.00  0.00     0.103 A 
HETATM    4  C   LIG     1      99.379  84.797  88.786  1.00  0.00     0.022 A 
HETATM    5  C   LIG     1      98.289  82.946  89.938  1.00  0.00     0.104 A 
HETATM    6  C   LIG     1      99.186  83.413  88.955  1.00  0.00     0.015 A 
ENDROOT
BRANCH   3   7
HETATM    7  N   LIG     1      98.855  87.117  89.462  1.00  0.00    -0.148 NA
HETATM    8  N   LIG     1      98.308  87.771  88.537  1.00  0.00    -0.148 NA
BRANCH   8   9
HETATM    9  C   LIG     1      97.095  87.344  87.939  1.00  0.00     0.103 A 
HETATM   10  C   LIG     1      97.143  86.743  86.664  1.00  0.00     0.021 A 
HETATM   11  C   LIG     1      95.955  86.324  86.034  1.00  0.00     0.002 A 
HETATM   12  C   LIG     1      94.714  86.514  86.672  1.00  0.00     0.000 A 
HETATM   13  C   LIG     1      94.658  87.129  87.937  1.00  0.00     0.002 A 
HETATM   14  C   LIG     1      95.845  87.550  88.568  1.00  0.00     0.021 A 
ENDBRANCH   8   9
ENDBRANCH   3   7
BRANCH   5  15
HETATM   15  S   LIG     1      98.048  81.185  90.161  1.00  0.00     0.139 S 
HETATM   16  O   LIG     1      99.372  80.698  90.582  1.00  0.00    -0.591 OA
HETATM   17  O   LIG     1      97.619  80.717  88.833  1.00  0.00    -0.591 OA
HETATM   18  O   LIG     1      97.010  81.122  91.201  1.00  0.00    -0.591 OA
ENDBRANCH   5  15
TORSDOF 3
ENDMDL
MODEL 2
REMARK VINA RESULT:      -0.0     10.339     11.603
REMARK  3 active torsions:
REMARK  status: ('A' for Active; 'I' for Inactive)
REMARK    1  A    between atoms: C_3  and  N_7 
REMARK    2  A    between atoms: C_5  and  S_15 
REMARK    3  A    between atoms: N_8  and  C_9 
ROOT
HETATM    1  C   LIG     1      88.184  90.796  88.990  1.00  0.00     0.022 A 
HETATM    2  C   LIG     1      88.256  91.654  87.875  1.00  0.00     0.015 A 
HETATM    3  C   LIG     1      89.238  89.900  89.266  1.00  0.00     0.103 A 
HETATM    4  C   LIG     1      90.354  89.842  88.399  1.00  0.00     0.022 A 
HETATM    5  C   LIG     1      89.384  91.609  87.030  1.00  0.00     0.104 A 
HETATM    6  C   LIG     1      90.430  90.698  87.284  1.00  0.00     0.015 A 
ENDROOT
BRANCH   3   7
HETATM    7  N   LIG     1      89.123  89.040  90.387  1.00  0.00    -0.148 NA
HETATM    8  N   LIG     1      89.748  89.261  91.456  1.00  0.00    -0.148 NA
BRANCH   8   9
HETATM    9  C   LIG     1      90.129  90.572  91.839  1.00  0.00     0.103 A 
HETATM   10  C   LIG     1      91.476  90.960  91.682  1.00  0.00     0.021 A 
HETATM   11  C   LIG     1      91.890  92.249  92.069  1.00  0.00     0.002 A 
HETATM   12  C   LIG     1      90.963  93.152  92.625  1.00  0.00     0.000 A 
HETATM   13  C   LIG     1      89.621  92.764  92.800  1.00  0.00     0.002 A 
HETATM   14  C   LIG     1      89.204  91.475  92.415  1.00  0.00     0.021 A 
ENDBRANCH   8   9
ENDBRANCH   3   7
BRANCH   5  15
HETATM   15  S   LIG     1      89.472  92.693  85.606  1.00  0.00     0.139 S 
HETATM   16  O   LIG     1      89.469  91.770  84.459  1.00  0.00    -0.591 OA
HETATM   17  O   LIG     1      90.734  93.425  85.798  1.00  0.00    -0.591 OA
HETATM   18  O   LIG     1      88.258  93.513  85.740  1.00  0.00    -0.591 OA
ENDBRANCH   5  15
TORSDOF 3
ENDMDL
MODEL 3
REMARK VINA RESULT:      -0.0     14.145     15.743
REMARK  3 active torsions:
REMARK  status: ('A' for Active; 'I' for Inactive)
REMARK    1  A    between atoms: C_3  and  N_7 
REMARK    2  A    between atoms: C_5  and  S_15 
REMARK    3  A    between atoms: N_8  and  C_9 
ROOT
HETATM    1  C   LIG     1      83.809  91.522  87.253  1.00  0.00     0.022 A 
HETATM    2  C   LIG     1      83.198  90.261  87.113  1.00  0.00     0.015 A 
HETATM    3  C   LIG     1      84.950  91.847  86.489  1.00  0.00     0.103 A 
HETATM    4  C   LIG     1      85.499  90.887  85.606  1.00  0.00     0.022 A 
HETATM    5  C   LIG     1      83.734  89.319  86.212  1.00  0.00     0.104 A 
HETATM    6  C   LIG     1      84.889  89.626  85.464  1.00  0.00     0.015 A 
ENDROOT
BRANCH   3   7
HETATM    7  N   LIG     1      85.549  93.119  86.669  1.00  0.00    -0.148 NA
HETATM    8  N   LIG     1      85.389  94.048  85.836  1.00  0.00    -0.148 NA
BRANCH   8   9
HETATM    9  C   LIG     1      84.233  94.124  85.018  1.00  0.00     0.103 A 
HETATM   10  C   LIG     1      84.336  93.745  83.663  1.00  0.00     0.021 A 
HETATM   11  C   LIG     1      83.211  93.825  82.819  1.00  0.00     0.002 A 
HETATM   12  C   LIG     1      81.983  94.296  83.323  1.00  0.00     0.000 A 
HETATM   13  C   LIG     1      81.879  94.691  84.670  1.00  0.00     0.002 A 
HETATM   14  C   LIG     1      83.002  94.613  85.516  1.00  0.00     0.021 A 
ENDBRANCH   8   9
ENDBRANCH   3   7
BRANCH   5  15
HETATM   15  S   LIG     1      82.962  87.711  86.041  1.00  0.00     0.139 S 
HETATM   16  O   LIG     1      83.993  86.773  86.514  1.00  0.00    -0.591 OA
HETATM   17  O   LIG     1      82.662  87.616  84.603  1.00  0.00    -0.591 OA
HETATM   18  O   LIG     1      81.781  87.818  86.910  1.00  0.00    -0.591 OA
ENDBRANCH   5  15
TORSDOF 3
ENDMDL
MODEL 4
REMARK VINA RESULT:      -0.0      5.305      6.156
REMARK  3 active torsions:
REMARK  status: ('A' for Active; 'I' for Inactive)
REMARK    1  A    between atoms: C_3  and  N_7 
REMARK    2  A    between atoms: C_5  and  S_15 
REMARK    3  A    between atoms: N_8  and  C_9 
ROOT
HETATM    1  C   LIG     1      94.284  86.509  94.532  1.00  0.00     0.022 A 
HETATM    2  C   LIG     1      95.176  85.499  94.940  1.00  0.00     0.015 A 
HETATM    3  C   LIG     1      94.297  86.972  93.200  1.00  0.00     0.103 A 
HETATM    4  C   LIG     1      95.235  86.442  92.282  1.00  0.00     0.022 A 
HETATM    5  C   LIG     1      96.090  84.956  94.014  1.00  0.00     0.104 A 
HETATM    6  C   LIG     1      96.128  85.432  92.687  1.00  0.00     0.015 A 
ENDROOT
BRANCH   3   7
HETATM    7  N   LIG     1      93.396  88.002  92.829  1.00  0.00    -0.148 NA
HETATM    8  N   LIG     1      92.352  87.760  92.170  1.00  0.00    -0.148 NA
BRANCH   8   9
HETATM    9  C   LIG     1      91.709  86.498  92.230  1.00  0.00     0.103 A 
HETATM   10  C   LIG     1      91.871  85.603  91.152  1.00  0.00     0.021 A 
HETATM   11  C   LIG     1      91.232  84.347  91.173  1.00  0.00     0.002 A 
HETATM   12  C   LIG     1      90.418  83.987  92.264  1.00  0.00     0.000 A 
HETATM   13  C   LIG     1      90.239  84.884  93.335  1.00  0.00     0.002 A 
HETATM   14  C   LIG     1      90.876  86.140  93.317  1.00  0.00     0.021 A 
ENDBRANCH   8   9
ENDBRANCH   3   7
BRANCH   5  15
HETATM   15  S   LIG     1      97.233  83.678  94.535  1.00  0.00     0.139 S 
HETATM   16  O   LIG     1      98.556  84.307  94.392  1.00  0.00    -0.591 OA
HETATM   17  O   LIG     1      96.976  82.573  93.598  1.00  0.00    -0.591 OA
HETATM   18  O   LIG     1      96.824  83.415  95.923  1.00  0.00    -0.591 OA
ENDBRANCH   5  15
TORSDOF 3
ENDMDL
MODEL 5
REMARK VINA RESULT:      -0.0      9.301     10.424
REMARK  3 active torsions:
REMARK  status: ('A' for Active; 'I' for Inactive)
REMARK    1  A    between atoms: C_3  and  N_7 
REMARK    2  A    between atoms: C_5  and  S_15 
REMARK    3  A    between atoms: N_8  and  C_9 
ROOT
HETATM    1  C   LIG     1      95.459  92.025  96.093  1.00  0.00     0.022 A 
HETATM    2  C   LIG     1      95.327  90.783  95.443  1.00  0.00     0.015 A 
HETATM    3  C   LIG     1      95.752  93.188  95.350  1.00  0.00     0.103 A 
HETATM    4  C   LIG     1      95.944  93.097  93.951  1.00  0.00     0.022 A 
HETATM    5  C   LIG     1      95.494  90.703  94.046  1.00  0.00     0.104 A 
HETATM    6  C   LIG     1      95.811  91.856  93.299  1.00  0.00     0.015 A 
ENDROOT
BRANCH   3   7
HETATM    7  N   LIG     1      95.895  94.418  96.040  1.00  0.00    -0.148 NA
HETATM    8  N   LIG     1      94.987  95.289  96.034  1.00  0.00    -0.148 NA
BRANCH   8   9
HETATM    9  C   LIG     1      93.623  94.941  95.861  1.00  0.00     0.103 A 
HETATM   10  C   LIG     1      93.019  95.172  94.608  1.00  0.00     0.021 A 
HETATM   11  C   LIG     1      91.661  94.854  94.407  1.00  0.00     0.002 A 
HETATM   12  C   LIG     1      90.899  94.316  95.462  1.00  0.00     0.000 A 
HETATM   13  C   LIG     1      91.492  94.100  96.721  1.00  0.00     0.002 A 
HETATM   14  C   LIG     1      92.850  94.417  96.924  1.00  0.00     0.021 A 
ENDBRANCH   8   9
ENDBRANCH   3   7
BRANCH   5  15
HETATM   15  S   LIG     1      95.335  89.121  93.219  1.00  0.00     0.139 S 
HETATM   16  O   LIG     1      96.679  88.871  92.673  1.00  0.00    -0.591 OA
HETATM   17  O   LIG     1      94.297  89.358  92.203  1.00  0.00    -0.591 OA
HETATM   18  O   LIG     1      94.935  88.218  94.309  1.00  0.00    -0.591 OA
ENDBRANCH   5  15
TORSDOF 3
ENDMDL
MODEL 6
REMARK VINA RESULT:      -0.0     11.274     12.698
REMARK  3 active torsions:
REMARK  status: ('A' for Active; 'I' for Inactive)
REMARK    1  A    between atoms: C_3  and  N_7 
REMARK    2  A    between atoms: C_5  and  S_15 
REMARK    3  A    between atoms: N_8  and  C_9 
ROOT
HETATM    1  C   LIG     1      90.063  93.243  88.630  1.00  0.00     0.022 A 
HETATM    2  C   LIG     1      89.786  93.009  89.991  1.00  0.00     0.015 A 
HETATM    3  C   LIG     1      89.473  92.434  87.636  1.00  0.00     0.103 A 
HETATM    4  C   LIG     1      88.628  91.364  88.013  1.00  0.00     0.022 A 
HETATM    5  C   LIG     1      88.922  91.957  90.358  1.00  0.00     0.104 A 
HETATM    6  C   LIG     1      88.349  91.128  89.372  1.00  0.00     0.015 A 
ENDROOT
BRANCH   3   7
HETATM    7  N   LIG     1      89.788  92.688  86.277  1.00  0.00    -0.148 NA
HETATM    8  N   LIG     1      88.986  93.283  85.513  1.00  0.00    -0.148 NA
BRANCH   8   9
HETATM    9  C   LIG     1      88.028  94.204  86.010  1.00  0.00     0.103 A 
HETATM   10  C   LIG     1      86.683  93.794  86.113  1.00  0.00     0.021 A 
HETATM   11  C   LIG     1      85.704  94.689  86.586  1.00  0.00     0.002 A 
HETATM   12  C   LIG     1      86.064  96.002  86.946  1.00  0.00     0.000 A 
HETATM   13  C   LIG     1      87.403  96.423  86.829  1.00  0.00     0.002 A 
HETATM   14  C   LIG     1      88.383  95.529  86.356  1.00  0.00     0.021 A 
ENDBRANCH   8   9
ENDBRANCH   3   7
BRANCH   5  15
HETATM   15  S   LIG     1      88.577  91.653  92.090  1.00  0.00     0.139 S 
HETATM   16  O   LIG     1      89.145  90.317  92.334  1.00  0.00    -0.591 OA
HETATM   17  O   LIG     1      87.109  91.717  92.173  1.00  0.00    -0.591 OA
HETATM   18  O   LIG     1      89.281  92.754  92.765  1.00  0.00    -0.591 OA
ENDBRANCH   5  15
TORSDOF 3
ENDMDL
MODEL 7
REMARK VINA RESULT:      -0.0     13.356     14.981
REMARK  3 active torsions:
REMARK  status: ('A' for Active; 'I' for Inactive)
REMARK    1  A    between atoms: C_3  and  N_7 
REMARK    2  A    between atoms: C_5  and  S_15 
REMARK    3  A    between atoms: N_8  and  C_9 
ROOT
HETATM    1  C   LIG     1      89.133  93.508  93.112  1.00  0.00     0.022 A 
HETATM    2  C   LIG     1      90.219  94.285  93.558  1.00  0.00     0.015 A 
HETATM    3  C   LIG     1      88.285  92.872  94.043  1.00  0.00     0.103 A 
HETATM    4  C   LIG     1      88.549  92.990  95.427  1.00  0.00     0.022 A 
HETATM    5  C   LIG     1      90.461  94.421  94.940  1.00  0.00     0.104 A 
HETATM    6  C   LIG     1      89.634  93.768  95.876  1.00  0.00     0.015 A 
ENDROOT
BRANCH   3   7
HETATM    7  N   LIG     1      87.212  92.083  93.557  1.00  0.00    -0.148 NA
HETATM    8  N   LIG     1      86.026  92.502  93.569  1.00  0.00    -0.148 NA
BRANCH   8   9
HETATM    9  C   LIG     1      85.724  93.887  93.516  1.00  0.00     0.103 A 
HETATM   10  C   LIG     1      85.329  94.541  94.701  1.00  0.00     0.021 A 
HETATM   11  C   LIG     1      85.006  95.911  94.680  1.00  0.00     0.002 A 
HETATM   12  C   LIG     1      85.064  96.631  93.471  1.00  0.00     0.000 A 
HETATM   13  C   LIG     1      85.441  95.980  92.280  1.00  0.00     0.002 A 
HETATM   14  C   LIG     1      85.764  94.609  92.300  1.00  0.00     0.021 A 
ENDBRANCH   8   9
ENDBRANCH   3   7
BRANCH   5  15
HETATM   15  S   LIG     1      91.849  95.402  95.508  1.00  0.00     0.139 S 
HETATM   16  O   LIG     1      92.723  94.424  96.176  1.00  0.00    -0.591 OA
HETATM   17  O   LIG     1      91.236  96.390  96.411  1.00  0.00    -0.591 OA
HETATM   18  O   LIG     1      92.391  95.962  94.261  1.00  0.00    -0.591 OA
ENDBRANCH   5  15
TORSDOF 3
ENDMDL
MODEL 8
REMARK VINA RESULT:      -0.0     13.815     15.570
REMARK  3 active torsions:
REMARK  status: ('A' for Active; 'I' for Inactive)
REMARK    1  A    between atoms: C_3  and  N_7 
REMARK    2  A    between atoms: C_5  and  S_15 
REMARK    3  A    between atoms: N_8  and  C_9 
ROOT
HETATM    1  C   LIG     1      87.582  93.150  93.588  1.00  0.00     0.022 A 
HETATM    2  C   LIG     1      87.143  92.340  92.523  1.00  0.00     0.015 A 
HETATM    3  C   LIG     1      86.680  94.016  94.240  1.00  0.00     0.103 A 
HETATM    4  C   LIG     1      85.338  94.093  93.799  1.00  0.00     0.022 A 
HETATM    5  C   LIG     1      85.798  92.402  92.105  1.00  0.00     0.104 A 
HETATM    6  C   LIG     1      84.896  93.283  92.736  1.00  0.00     0.015 A 
ENDROOT
BRANCH   3   7
HETATM    7  N   LIG     1      87.161  94.829  95.297  1.00  0.00    -0.148 NA
HETATM    8  N   LIG     1      86.933  94.551  96.502  1.00  0.00    -0.148 NA
BRANCH   8   9
HETATM    9  C   LIG     1      86.708  93.217  96.929  1.00  0.00     0.103 A 
HETATM   10  C   LIG     1      85.388  92.810  97.212  1.00  0.00     0.021 A 
HETATM   11  C   LIG     1      85.132  91.497  97.654  1.00  0.00     0.002 A 
HETATM   12  C   LIG     1      86.196  90.591  97.827  1.00  0.00     0.000 A 
HETATM   13  C   LIG     1      87.518  90.997  97.563  1.00  0.00     0.002 A 
HETATM   14  C   LIG     1      87.776  92.309  97.121  1.00  0.00     0.021 A 
ENDBRANCH   8   9
ENDBRANCH   3   7
BRANCH   5  15
HETATM   15  S   LIG     1      85.241  91.378  90.744  1.00  0.00     0.139 S 
HETATM   16  O   LIG     1      84.862  92.348  89.705  1.00  0.00    -0.591 OA
HETATM   17  O   LIG     1      84.115  90.619  91.312  1.00  0.00    -0.591 OA
HETATM   18  O   LIG     1      86.429  90.571  90.430  1.00  0.00    -0.591 OA
ENDBRANCH   5  15
TORSDOF 3
ENDMDL
MODEL 9
REMARK VINA RESULT:      -0.0      7.470      8.708
REMARK  3 active torsions:
REMARK  status: ('A' for Active; 'I' for Inactive)
REMARK    1  A    between atoms: C_3  and  N_7 
REMARK    2  A    between atoms: C_5  and  S_15 
REMARK    3  A    between atoms: N_8  and  C_9 
ROOT
HETATM    1  C   LIG     1      93.297  89.690  93.399  1.00  0.00     0.022 A 
HETATM    2  C   LIG     1      94.214  89.281  94.387  1.00  0.00     0.015 A 
HETATM    3  C   LIG     1      92.741  88.745  92.512  1.00  0.00     0.103 A 
HETATM    4  C   LIG     1      93.132  87.388  92.597  1.00  0.00     0.022 A 
HETATM    5  C   LIG     1      94.580  87.923  94.483  1.00  0.00     0.104 A 
HETATM    6  C   LIG     1      94.048  86.976  93.584  1.00  0.00     0.015 A 
ENDROOT
BRANCH   3   7
HETATM    7  N   LIG     1      91.834  89.195  91.520  1.00  0.00    -0.148 NA
HETATM    8  N   LIG     1      90.593  89.024  91.632  1.00  0.00    -0.148 NA
BRANCH   8   9
HETATM    9  C   LIG     1      89.968  88.912  92.900  1.00  0.00     0.103 A 
HETATM   10  C   LIG     1      89.573  87.636  93.351  1.00  0.00     0.021 A 
HETATM   11  C   LIG     1      88.935  87.492  94.598  1.00  0.00     0.002 A 
HETATM   12  C   LIG     1      88.677  88.626  95.393  1.00  0.00     0.000 A 
HETATM   13  C   LIG     1      89.053  89.905  94.940  1.00  0.00     0.002 A 
HETATM   14  C   LIG     1      89.691  90.051  93.693  1.00  0.00     0.021 A 
ENDBRANCH   8   9
ENDBRANCH   3   7
BRANCH   5  15
HETATM   15  S   LIG     1      95.754  87.404  95.733  1.00  0.00     0.139 S 
HETATM   16  O   LIG     1      96.906  86.919  94.956  1.00  0.00    -0.591 OA
HETATM   17  O   LIG     1      95.035  86.358  96.478  1.00  0.00    -0.591 OA
HETATM   18  O   LIG     1      95.999  88.641  96.490  1.00  0.00    -0.591 OA
ENDBRANCH   5  15
TORSDOF 3
ENDMDL
