MODEL 1
REMARK VINA RESULT:      -0.0      0.000      0.000
REMARK  6 active torsions:
REMARK  status: ('A' for Active; 'I' for Inactive)
REMARK    1  A    between atoms: C_3  and  O_19 
REMARK    2  A    between atoms: C_4  and  O_17 
REMARK    3  A    between atoms: C_5  and  O_15 
REMARK    4  A    between atoms: C_6  and  O_7 
REMARK    5  A    between atoms: O_7  and  C_8 
REMARK    6  A    between atoms: C_8  and  C_9 
ROOT
HETATM    1  O   LIG     1      94.359  93.801  84.886  1.00  0.00    -0.326 OA
HETATM    2  C   LIG     1      95.695  93.378  84.625  1.00  0.00     0.177 C 
HETATM    3  C   LIG     1      95.903  93.235  83.107  1.00  0.00     0.170 C 
HETATM    4  C   LIG     1      94.860  92.276  82.498  1.00  0.00     0.172 C 
HETATM    5  C   LIG     1      93.440  92.723  82.903  1.00  0.00     0.197 C 
HETATM    6  C   LIG     1      93.381  92.899  84.446  1.00  0.00     0.266 C 
ENDROOT
BRANCH   6   7
HETATM    7  O   LIG     1      92.079  93.186  84.859  1.00  0.00    -0.324 OA
BRANCH   7   8
HETATM    8  C   LIG     1      91.899  94.399  85.581  1.00  0.00     0.172 C 
BRANCH   8   9
HETATM    9  C   LIG     1      91.279  95.484  84.720  1.00  0.00     0.007 A 
HETATM   10  C   LIG     1      91.907  96.742  84.597  1.00  0.00    -0.002 A 
HETATM   11  C   LIG     1      91.339  97.742  83.784  1.00  0.00    -0.000 A 
HETATM   12  C   LIG     1      90.143  97.486  83.085  1.00  0.00    -0.000 A 
HETATM   13  C   LIG     1      89.518  96.230  83.197  1.00  0.00    -0.000 A 
HETATM   14  C   LIG     1      90.086  95.229  84.010  1.00  0.00    -0.002 A 
ENDBRANCH   8   9
ENDBRANCH   7   8
ENDBRANCH   6   7
BRANCH   5  15
HETATM   15  O   LIG     1      93.100  93.905  82.206  1.00  0.00    -0.378 OA
HETATM   16  H   LIG     1      93.819  94.126  81.633  1.00  0.00     0.211 HD
ENDBRANCH   5  15
BRANCH   4  17
HETATM   17  O   LIG     1      95.076  90.945  82.935  1.00  0.00    -0.380 OA
HETATM   18  H   LIG     1      95.645  90.512  82.316  1.00  0.00     0.211 HD
ENDBRANCH   4  17
BRANCH   3  19
HETATM   19  O   LIG     1      97.221  92.812  82.814  1.00  0.00    -0.380 OA
HETATM   20  H   LIG     1      97.221  92.396  81.966  1.00  0.00     0.211 HD
ENDBRANCH   3  19
TORSDOF 6
ENDMDL
MODEL 2
REMARK VINA RESULT:      -0.0      6.055      7.135
REMARK  6 active torsions:
REMARK  status: ('A' for Active; 'I' for Inactive)
REMARK    1  A    between atoms: C_3  and  O_19 
REMARK    2  A    between atoms: C_4  and  O_17 
REMARK    3  A    between atoms: C_5  and  O_15 
REMARK    4  A    between atoms: C_6  and  O_7 
REMARK    5  A    between atoms: O_7  and  C_8 
REMARK    6  A    between atoms: C_8  and  C_9 
ROOT
HETATM    1  O   LIG     1      87.432  89.484  85.984  1.00  0.00    -0.326 OA
HETATM    2  C   LIG     1      87.843  88.379  85.184  1.00  0.00     0.177 C 
HETATM    3  C   LIG     1      88.614  88.890  83.954  1.00  0.00     0.170 C 
HETATM    4  C   LIG     1      87.768  89.903  83.157  1.00  0.00     0.172 C 
HETATM    5  C   LIG     1      87.262  91.017  84.097  1.00  0.00     0.197 C 
HETATM    6  C   LIG     1      86.568  90.371  85.327  1.00  0.00     0.266 C 
ENDROOT
BRANCH   6   7
HETATM    7  O   LIG     1      85.993  91.350  86.139  1.00  0.00    -0.324 OA
BRANCH   7   8
HETATM    8  C   LIG     1      86.432  91.387  87.492  1.00  0.00     0.172 C 
BRANCH   8   9
HETATM    9  C   LIG     1      87.402  92.526  87.742  1.00  0.00     0.007 A 
HETATM   10  C   LIG     1      88.666  92.273  88.318  1.00  0.00    -0.002 A 
HETATM   11  C   LIG     1      89.571  93.331  88.534  1.00  0.00    -0.000 A 
HETATM   12  C   LIG     1      89.219  94.644  88.171  1.00  0.00    -0.000 A 
HETATM   13  C   LIG     1      87.963  94.901  87.589  1.00  0.00    -0.000 A 
HETATM   14  C   LIG     1      87.057  93.844  87.371  1.00  0.00    -0.002 A 
ENDBRANCH   8   9
ENDBRANCH   7   8
ENDBRANCH   6   7
BRANCH   5  15
HETATM   15  O   LIG     1      88.342  91.855  84.457  1.00  0.00    -0.378 OA
HETATM   16  H   LIG     1      88.008  92.730  84.581  1.00  0.00     0.211 HD
ENDBRANCH   5  15
BRANCH   4  17
HETATM   17  O   LIG     1      86.658  89.266  82.544  1.00  0.00    -0.380 OA
HETATM   18  H   LIG     1      86.439  89.736  81.753  1.00  0.00     0.211 HD
ENDBRANCH   4  17
BRANCH   3  19
HETATM   19  O   LIG     1      89.035  87.816  83.136  1.00  0.00    -0.380 OA
HETATM   20  H   LIG     1      89.329  87.112  83.693  1.00  0.00     0.211 HD
ENDBRANCH   3  19
TORSDOF 6
ENDMDL
MODEL 3
REMARK VINA RESULT:      -0.0      9.388     11.844
REMARK  6 active torsions:
REMARK  status: ('A' for Active; 'I' for Inactive)
REMARK    1  A    between atoms: C_3  and  O_19 
REMARK    2  A    between atoms: C_4  and  O_17 
REMARK    3  A    between atoms: C_5  and  O_15 
REMARK    4  A    between atoms: C_6  and  O_7 
REMARK    5  A    between atoms: O_7  and  C_8 
REMARK    6  A    between atoms: C_8  and  C_9 
ROOT
HETATM    1  O   LIG     1      86.669  87.329  89.439  1.00  0.00    -0.326 OA
HETATM    2  C   LIG     1      86.008  88.085  88.427  1.00  0.00     0.177 C 
HETATM    3  C   LIG     1      86.877  89.293  88.035  1.00  0.00     0.170 C 
HETATM    4  C   LIG     1      87.217  90.149  89.272  1.00  0.00     0.172 C 
HETATM    5  C   LIG     1      87.830  89.258  90.372  1.00  0.00     0.197 C 
HETATM    6  C   LIG     1      86.896  88.042  90.623  1.00  0.00     0.266 C 
ENDROOT
BRANCH   6   7
HETATM    7  O   LIG     1      87.359  87.279  91.696  1.00  0.00    -0.324 OA
BRANCH   7   8
HETATM    8  C   LIG     1      87.636  85.910  91.425  1.00  0.00     0.172 C 
BRANCH   8   9
HETATM    9  C   LIG     1      89.125  85.646  91.304  1.00  0.00     0.007 A 
HETATM   10  C   LIG     1      89.646  85.013  90.156  1.00  0.00    -0.002 A 
HETATM   11  C   LIG     1      91.031  84.784  90.039  1.00  0.00    -0.000 A 
HETATM   12  C   LIG     1      91.902  85.193  91.067  1.00  0.00    -0.000 A 
HETATM   13  C   LIG     1      91.388  85.832  92.211  1.00  0.00    -0.000 A 
HETATM   14  C   LIG     1      90.003  86.062  92.329  1.00  0.00    -0.002 A 
ENDBRANCH   8   9
ENDBRANCH   7   8
ENDBRANCH   6   7
BRANCH   5  15
HETATM   15  O   LIG     1      89.136  88.873  89.993  1.00  0.00    -0.378 OA
HETATM   16  H   LIG     1      89.418  89.437  89.289  1.00  0.00     0.211 HD
ENDBRANCH   5  15
BRANCH   4  17
HETATM   17  O   LIG     1      86.059  90.792  89.779  1.00  0.00    -0.380 OA
HETATM   18  H   LIG     1      85.701  90.264  90.476  1.00  0.00     0.211 HD
ENDBRANCH   4  17
BRANCH   3  19
HETATM   19  O   LIG     1      86.247  90.067  87.033  1.00  0.00    -0.380 OA
HETATM   20  H   LIG     1      85.547  89.558  86.656  1.00  0.00     0.211 HD
ENDBRANCH   3  19
TORSDOF 6
ENDMDL
MODEL 4
REMARK VINA RESULT:      -0.0      4.548      6.062
REMARK  6 active torsions:
REMARK  status: ('A' for Active; 'I' for Inactive)
REMARK    1  A    between atoms: C_3  and  O_19 
REMARK    2  A    between atoms: C_4  and  O_17 
REMARK    3  A    between atoms: C_5  and  O_15 
REMARK    4  A    between atoms: C_6  and  O_7 
REMARK    5  A    between atoms: O_7  and  C_8 
REMARK    6  A    between atoms: C_8  and  C_9 
ROOT
HETATM    1  O   LIG     1      88.846  93.144  87.394  1.00  0.00    -0.326 OA
HETATM    2  C   LIG     1      88.510  91.790  87.687  1.00  0.00     0.177 C 
HETATM    3  C   LIG     1      89.655  91.134  88.477  1.00  0.00     0.170 C 
HETATM    4  C   LIG     1      90.988  91.249  87.712  1.00  0.00     0.172 C 
HETATM    5  C   LIG     1      91.245  92.721  87.329  1.00  0.00     0.197 C 
HETATM    6  C   LIG     1      89.994  93.285  86.602  1.00  0.00     0.266 C 
ENDROOT
BRANCH   6   7
HETATM    7  O   LIG     1      90.237  94.578  86.135  1.00  0.00    -0.324 OA
BRANCH   7   8
HETATM    8  C   LIG     1      89.356  95.595  86.601  1.00  0.00     0.172 C 
BRANCH   8   9
HETATM    9  C   LIG     1      89.998  96.451  87.676  1.00  0.00     0.007 A 
HETATM   10  C   LIG     1      89.360  96.628  88.922  1.00  0.00    -0.002 A 
HETATM   11  C   LIG     1      89.966  97.411  89.924  1.00  0.00    -0.000 A 
HETATM   12  C   LIG     1      91.216  98.015  89.687  1.00  0.00    -0.000 A 
HETATM   13  C   LIG     1      91.861  97.834  88.448  1.00  0.00    -0.000 A 
HETATM   14  C   LIG     1      91.255  97.051  87.446  1.00  0.00    -0.002 A 
ENDBRANCH   8   9
ENDBRANCH   7   8
ENDBRANCH   6   7
BRANCH   5  15
HETATM   15  O   LIG     1      91.582  93.458  88.487  1.00  0.00    -0.378 OA
HETATM   16  H   LIG     1      91.669  94.367  88.244  1.00  0.00     0.211 HD
ENDBRANCH   5  15
BRANCH   4  17
HETATM   17  O   LIG     1      90.970  90.454  86.538  1.00  0.00    -0.380 OA
HETATM   18  H   LIG     1      91.416  90.923  85.848  1.00  0.00     0.211 HD
ENDBRANCH   4  17
BRANCH   3  19
HETATM   19  O   LIG     1      89.353  89.786  88.782  1.00  0.00    -0.380 OA
HETATM   20  H   LIG     1      88.424  89.714  88.939  1.00  0.00     0.211 HD
ENDBRANCH   3  19
TORSDOF 6
ENDMDL
MODEL 5
REMARK VINA RESULT:      -0.0      6.779      8.987
REMARK  6 active torsions:
REMARK  status: ('A' for Active; 'I' for Inactive)
REMARK    1  A    between atoms: C_3  and  O_19 
REMARK    2  A    between atoms: C_4  and  O_17 
REMARK    3  A    between atoms: C_5  and  O_15 
REMARK    4  A    between atoms: C_6  and  O_7 
REMARK    5  A    between atoms: O_7  and  C_8 
REMARK    6  A    between atoms: C_8  and  C_9 
ROOT
HETATM    1  O   LIG     1      93.420  96.688  89.170  1.00  0.00    -0.326 OA
HETATM    2  C   LIG     1      92.618  96.795  87.996  1.00  0.00     0.177 C 
HETATM    3  C   LIG     1      92.751  98.211  87.408  1.00  0.00     0.170 C 
HETATM    4  C   LIG     1      92.387  99.279  88.459  1.00  0.00     0.172 C 
HETATM    5  C   LIG     1      93.208  99.047  89.745  1.00  0.00     0.197 C 
HETATM    6  C   LIG     1      93.047  97.568  90.194  1.00  0.00     0.266 C 
ENDROOT
BRANCH   6   7
HETATM    7  O   LIG     1      93.679  97.354  91.420  1.00  0.00    -0.324 OA
BRANCH   7   8
HETATM    8  C   LIG     1      94.685  96.348  91.445  1.00  0.00     0.172 C 
BRANCH   8   9
HETATM    9  C   LIG     1      96.081  96.942  91.450  1.00  0.00     0.007 A 
HETATM   10  C   LIG     1      97.026  96.550  90.478  1.00  0.00    -0.002 A 
HETATM   11  C   LIG     1      98.316  97.115  90.475  1.00  0.00    -0.000 A 
HETATM   12  C   LIG     1      98.665  98.079  91.440  1.00  0.00    -0.000 A 
HETATM   13  C   LIG     1      97.723  98.480  92.406  1.00  0.00    -0.000 A 
HETATM   14  C   LIG     1      96.433  97.916  92.410  1.00  0.00    -0.002 A 
ENDBRANCH   8   9
ENDBRANCH   7   8
ENDBRANCH   6   7
BRANCH   5  15
HETATM   15  O   LIG     1      94.557  99.402  89.514  1.00  0.00    -0.378 OA
HETATM   16  H   LIG     1      94.984  99.500  90.351  1.00  0.00     0.211 HD
ENDBRANCH   5  15
BRANCH   4  17
HETATM   17  O   LIG     1      91.005  99.235  88.771  1.00  0.00    -0.380 OA
HETATM   18  H   LIG     1      90.704  98.342  88.689  1.00  0.00     0.211 HD
ENDBRANCH   4  17
BRANCH   3  19
HETATM   19  O   LIG     1      91.964  98.351  86.241  1.00  0.00    -0.380 OA
HETATM   20  H   LIG     1      92.012  97.547  85.747  1.00  0.00     0.211 HD
ENDBRANCH   3  19
TORSDOF 6
ENDMDL
MODEL 6
REMARK VINA RESULT:      -0.0     12.256     14.109
REMARK  6 active torsions:
REMARK  status: ('A' for Active; 'I' for Inactive)
REMARK    1  A    between atoms: C_3  and  O_19 
REMARK    2  A    between atoms: C_4  and  O_17 
REMARK    3  A    between atoms: C_5  and  O_15 
REMARK    4  A    between atoms: C_6  and  O_7 
REMARK    5  A    between atoms: O_7  and  C_8 
REMARK    6  A    between atoms: C_8  and  C_9 
ROOT
HETATM    1  O   LIG     1      85.307  86.675  92.632  1.00  0.00    -0.326 OA
HETATM    2  C   LIG     1      84.939  85.351  93.011  1.00  0.00     0.177 C 
HETATM    3  C   LIG     1      85.038  85.206  94.539  1.00  0.00     0.170 C 
HETATM    4  C   LIG     1      86.448  85.583  95.037  1.00  0.00     0.172 C 
HETATM    5  C   LIG     1      86.833  86.980  94.507  1.00  0.00     0.197 C 
HETATM    6  C   LIG     1      86.623  87.017  92.968  1.00  0.00     0.266 C 
ENDROOT
BRANCH   6   7
HETATM    7  O   LIG     1      87.075  88.227  92.438  1.00  0.00    -0.324 OA
BRANCH   7   8
HETATM    8  C   LIG     1      86.120  88.999  91.719  1.00  0.00     0.172 C 
BRANCH   8   9
HETATM    9  C   LIG     1      85.612  90.174  92.533  1.00  0.00     0.007 A 
HETATM   10  C   LIG     1      84.227  90.359  92.729  1.00  0.00    -0.002 A 
HETATM   11  C   LIG     1      83.759  91.442  93.499  1.00  0.00    -0.000 A 
HETATM   12  C   LIG     1      84.673  92.341  94.080  1.00  0.00    -0.000 A 
HETATM   13  C   LIG     1      86.057  92.155  93.894  1.00  0.00    -0.000 A 
HETATM   14  C   LIG     1      86.526  91.072  93.125  1.00  0.00    -0.002 A 
ENDBRANCH   8   9
ENDBRANCH   7   8
ENDBRANCH   6   7
BRANCH   5  15
HETATM   15  O   LIG     1      86.080  87.966  95.184  1.00  0.00    -0.378 OA
HETATM   16  H   LIG     1      86.674  88.634  95.489  1.00  0.00     0.211 HD
ENDBRANCH   5  15
BRANCH   4  17
HETATM   17  O   LIG     1      87.410  84.635  94.605  1.00  0.00    -0.380 OA
HETATM   18  H   LIG     1      86.978  83.805  94.471  1.00  0.00     0.211 HD
ENDBRANCH   4  17
BRANCH   3  19
HETATM   19  O   LIG     1      84.682  83.900  94.949  1.00  0.00    -0.380 OA
HETATM   20  H   LIG     1      84.627  83.885  95.892  1.00  0.00     0.211 HD
ENDBRANCH   3  19
TORSDOF 6
ENDMDL
MODEL 7
REMARK VINA RESULT:      -0.0      8.941     11.114
REMARK  6 active torsions:
REMARK  status: ('A' for Active; 'I' for Inactive)
REMARK    1  A    between atoms: C_3  and  O_19 
REMARK    2  A    between atoms: C_4  and  O_17 
REMARK    3  A    between atoms: C_5  and  O_15 
REMARK    4  A    between atoms: C_6  and  O_7 
REMARK    5  A    between atoms: O_7  and  C_8 
REMARK    6  A    between atoms: C_8  and  C_9 
ROOT
HETATM    1  O   LIG     1      91.412  87.533  92.963  1.00  0.00    -0.326 OA
HETATM    2  C   LIG     1      90.235  86.767  93.207  1.00  0.00     0.177 C 
HETATM    3  C   LIG     1      88.995  87.590  92.817  1.00  0.00     0.170 C 
HETATM    4  C   LIG     1      88.975  88.940  93.562  1.00  0.00     0.172 C 
HETATM    5  C   LIG     1      90.315  89.674  93.348  1.00  0.00     0.197 C 
HETATM    6  C   LIG     1      91.484  88.717  93.708  1.00  0.00     0.266 C 
ENDROOT
BRANCH   6   7
HETATM    7  O   LIG     1      92.707  89.387  93.642  1.00  0.00    -0.324 OA
BRANCH   7   8
HETATM    8  C   LIG     1      93.678  88.843  92.755  1.00  0.00     0.172 C 
BRANCH   8   9
HETATM    9  C   LIG     1      93.790  89.649  91.475  1.00  0.00     0.007 A 
HETATM   10  C   LIG     1      93.652  89.017  90.220  1.00  0.00    -0.002 A 
HETATM   11  C   LIG     1      93.740  89.770  89.034  1.00  0.00    -0.000 A 
HETATM   12  C   LIG     1      93.962  91.159  89.096  1.00  0.00    -0.000 A 
HETATM   13  C   LIG     1      94.092  91.795  90.345  1.00  0.00    -0.000 A 
HETATM   14  C   LIG     1      94.004  91.043  91.532  1.00  0.00    -0.002 A 
ENDBRANCH   8   9
ENDBRANCH   7   8
ENDBRANCH   6   7
BRANCH   5  15
HETATM   15  O   LIG     1      90.387  90.147  92.018  1.00  0.00    -0.378 OA
HETATM   16  H   LIG     1      90.525  89.406  91.449  1.00  0.00     0.211 HD
ENDBRANCH   5  15
BRANCH   4  17
HETATM   17  O   LIG     1      88.758  88.752  94.950  1.00  0.00    -0.380 OA
HETATM   18  H   LIG     1      88.918  89.571  95.395  1.00  0.00     0.211 HD
ENDBRANCH   4  17
BRANCH   3  19
HETATM   19  O   LIG     1      87.807  86.859  93.051  1.00  0.00    -0.380 OA
HETATM   20  H   LIG     1      87.075  87.454  93.014  1.00  0.00     0.211 HD
ENDBRANCH   3  19
TORSDOF 6
ENDMDL
MODEL 8
REMARK VINA RESULT:      -0.0      5.853      7.692
REMARK  6 active torsions:
REMARK  status: ('A' for Active; 'I' for Inactive)
REMARK    1  A    between atoms: C_3  and  O_19 
REMARK    2  A    between atoms: C_4  and  O_17 
REMARK    3  A    between atoms: C_5  and  O_15 
REMARK    4  A    between atoms: C_6  and  O_7 
REMARK    5  A    between atoms: O_7  and  C_8 
REMARK    6  A    between atoms: C_8  and  C_9 
ROOT
HETATM    1  O   LIG     1      88.097  94.037  87.875  1.00  0.00    -0.326 OA
HETATM    2  C   LIG     1      88.710  95.314  88.036  1.00  0.00     0.177 C 
HETATM    3  C   LIG     1      90.232  95.141  88.179  1.00  0.00     0.170 C 
HETATM    4  C   LIG     1      90.570  94.183  89.338  1.00  0.00     0.172 C 
HETATM    5  C   LIG     1      89.796  92.860  89.166  1.00  0.00     0.197 C 
HETATM    6  C   LIG     1      88.288  93.174  88.962  1.00  0.00     0.266 C 
ENDROOT
BRANCH   6   7
HETATM    7  O   LIG     1      87.540  91.996  88.923  1.00  0.00    -0.324 OA
BRANCH   7   8
HETATM    8  C   LIG     1      86.767  91.777  87.748  1.00  0.00     0.172 C 
BRANCH   8   9
HETATM    9  C   LIG     1      87.409  90.754  86.830  1.00  0.00     0.007 A 
HETATM   10  C   LIG     1      87.664  91.070  85.478  1.00  0.00    -0.002 A 
HETATM   11  C   LIG     1      88.274  90.124  84.632  1.00  0.00    -0.000 A 
HETATM   12  C   LIG     1      88.639  88.861  85.135  1.00  0.00    -0.000 A 
HETATM   13  C   LIG     1      88.395  88.544  86.484  1.00  0.00    -0.000 A 
HETATM   14  C   LIG     1      87.785  89.489  87.332  1.00  0.00    -0.002 A 
ENDBRANCH   8   9
ENDBRANCH   7   8
ENDBRANCH   6   7
BRANCH   5  15
HETATM   15  O   LIG     1      90.350  92.126  88.093  1.00  0.00    -0.378 OA
HETATM   16  H   LIG     1      91.247  92.402  87.979  1.00  0.00     0.211 HD
ENDBRANCH   5  15
BRANCH   4  17
HETATM   17  O   LIG     1      90.238  94.762  90.589  1.00  0.00    -0.380 OA
HETATM   18  H   LIG     1      90.644  94.254  91.276  1.00  0.00     0.211 HD
ENDBRANCH   4  17
BRANCH   3  19
HETATM   19  O   LIG     1      90.871  96.392  88.344  1.00  0.00    -0.380 OA
HETATM   20  H   LIG     1      90.253  97.075  88.137  1.00  0.00     0.211 HD
ENDBRANCH   3  19
TORSDOF 6
ENDMDL
MODEL 9
REMARK VINA RESULT:      -0.0      5.889      8.053
REMARK  6 active torsions:
REMARK  status: ('A' for Active; 'I' for Inactive)
REMARK    1  A    between atoms: C_3  and  O_19 
REMARK    2  A    between atoms: C_4  and  O_17 
REMARK    3  A    between atoms: C_5  and  O_15 
REMARK    4  A    between atoms: C_6  and  O_7 
REMARK    5  A    between atoms: O_7  and  C_8 
REMARK    6  A    between atoms: C_8  and  C_9 
ROOT
HETATM    1  O   LIG     1      87.642  93.222  88.596  1.00  0.00    -0.326 OA
HETATM    2  C   LIG     1      86.427  92.733  88.032  1.00  0.00     0.177 C 
HETATM    3  C   LIG     1      86.736  91.573  87.070  1.00  0.00     0.170 C 
HETATM    4  C   LIG     1      87.744  92.010  85.988  1.00  0.00     0.172 C 
HETATM    5  C   LIG     1      88.991  92.628  86.655  1.00  0.00     0.197 C 
HETATM    6  C   LIG     1      88.542  93.732  87.651  1.00  0.00     0.266 C 
ENDROOT
BRANCH   6   7
HETATM    7  O   LIG     1      89.649  94.395  88.183  1.00  0.00    -0.324 OA
BRANCH   7   8
HETATM    8  C   LIG     1      89.774  94.379  89.601  1.00  0.00     0.172 C 
BRANCH   8   9
HETATM    9  C   LIG     1      90.829  93.392  90.065  1.00  0.00     0.007 A 
HETATM   10  C   LIG     1      90.508  92.398  91.014  1.00  0.00    -0.002 A 
HETATM   11  C   LIG     1      91.484  91.473  91.431  1.00  0.00    -0.000 A 
HETATM   12  C   LIG     1      92.785  91.534  90.896  1.00  0.00    -0.000 A 
HETATM   13  C   LIG     1      93.109  92.518  89.943  1.00  0.00    -0.000 A 
HETATM   14  C   LIG     1      92.132  93.443  89.525  1.00  0.00    -0.002 A 
ENDBRANCH   8   9
ENDBRANCH   7   8
ENDBRANCH   6   7
BRANCH   5  15
HETATM   15  O   LIG     1      89.747  91.608  87.276  1.00  0.00    -0.378 OA
HETATM   16  H   LIG     1      89.524  90.785  86.870  1.00  0.00     0.211 HD
ENDBRANCH   5  15
BRANCH   4  17
HETATM   17  O   LIG     1      87.165  92.957  85.106  1.00  0.00    -0.380 OA
HETATM   18  H   LIG     1      86.768  92.494  84.383  1.00  0.00     0.211 HD
ENDBRANCH   4  17
BRANCH   3  19
HETATM   19  O   LIG     1      85.549  91.067  86.490  1.00  0.00    -0.380 OA
HETATM   20  H   LIG     1      85.361  91.562  85.708  1.00  0.00     0.211 HD
ENDBRANCH   3  19
TORSDOF 6
ENDMDL
