MODEL 1
REMARK VINA RESULT:      -0.0      0.000      0.000
REMARK  5 active torsions:
REMARK  status: ('A' for Active; 'I' for Inactive)
REMARK    1  A    between atoms: C_1  and  N_20 
REMARK    2  A    between atoms: C_1  and  C_8 
REMARK    3  A    between atoms: C_1  and  C_2 
REMARK    4  A    between atoms: C_9  and  O_18 
REMARK    5  A    between atoms: N_20  and  C_22 
ROOT
HETATM    1  C   LIG     1      93.045  87.915  91.863  1.00  0.00     0.060 C 
ENDROOT
BRANCH   1   2
HETATM    2  N   LIG     1      94.292  87.235  91.498  1.00  0.00    -0.340 N 
HETATM    3  H   LIG     1      94.552  86.429  92.049  1.00  0.00     0.167 HD
BRANCH   2   4
HETATM    4  C   LIG     1      95.162  87.650  90.475  1.00  0.00     0.118 A 
HETATM    5  C   LIG     1      96.081  88.696  90.703  1.00  0.00     0.031 A 
HETATM    6  C   LIG     1      96.955  89.099  89.670  1.00  0.00    -0.017 A 
HETATM    7  C   LIG     1      96.895  88.440  88.424  1.00  0.00     0.014 A 
HETATM    8  C   LIG     1      97.950  90.218  89.900  1.00  0.00     0.031 C 
HETATM    9  C   LIG     1      95.961  87.401  88.245  1.00  0.00     0.073 A 
HETATM   10  N   LIG     1      95.144  87.050  89.261  1.00  0.00    -0.339 N 
HETATM   11  H   LIG     1      94.473  86.298  89.101  1.00  0.00     0.167 HD
ENDBRANCH   2   4
ENDBRANCH   1   2
BRANCH   1  12
HETATM   12  C   LIG     1      92.446  88.850  90.800  1.00  0.00     0.039 A 
HETATM   13  C   LIG     1      92.455  90.254  90.972  1.00  0.00     0.004 A 
HETATM   14  C   LIG     1      91.910  91.099  89.992  1.00  0.00     0.002 A 
HETATM   15  C   LIG     1      91.350  90.553  88.823  1.00  0.00     0.020 A 
HETATM   16  C   LIG     1      90.805  91.409  87.843  1.00  0.00     0.003 A 
HETATM   17  C   LIG     1      91.324  89.147  88.614  1.00  0.00     0.103 A 
HETATM   18  C   LIG     1      90.249  90.842  86.682  1.00  0.00     0.021 A 
HETATM   19  C   LIG     1      90.264  89.442  86.553  1.00  0.00     0.099 A 
HETATM   20  N   LIG     1      90.783  88.620  87.488  1.00  0.00    -0.242 NA
HETATM   21  C   LIG     1      91.877  88.308  89.616  1.00  0.00     0.108 A 
BRANCH  21  22
HETATM   22  O   LIG     1      91.853  86.950  89.430  1.00  0.00    -0.357 OA
HETATM   23  H   LIG     1      92.592  86.493  89.798  1.00  0.00     0.217 HD
ENDBRANCH  21  22
ENDBRANCH   1  12
BRANCH   1  24
HETATM   24  C   LIG     1      93.032  88.480  93.286  1.00  0.00     0.016 A 
HETATM   25  C   LIG     1      91.825  88.462  94.020  1.00  0.00     0.001 A 
HETATM   26  C   LIG     1      91.779  88.967  95.333  1.00  0.00     0.000 A 
HETATM   27  C   LIG     1      92.941  89.495  95.927  1.00  0.00     0.000 A 
HETATM   28  C   LIG     1      94.149  89.517  95.205  1.00  0.00     0.000 A 
HETATM   29  C   LIG     1      94.196  89.012  93.891  1.00  0.00     0.001 A 
ENDBRANCH   1  24
TORSDOF 5
ENDMDL
MODEL 2
REMARK VINA RESULT:      -0.0      6.103      9.245
REMARK  5 active torsions:
REMARK  status: ('A' for Active; 'I' for Inactive)
REMARK    1  A    between atoms: C_1  and  N_20 
REMARK    2  A    between atoms: C_1  and  C_8 
REMARK    3  A    between atoms: C_1  and  C_2 
REMARK    4  A    between atoms: C_9  and  O_18 
REMARK    5  A    between atoms: N_20  and  C_22 
ROOT
HETATM    1  C   LIG     1      85.519  89.203  91.786  1.00  0.00     0.060 C 
ENDROOT
BRANCH   1   2
HETATM    2  N   LIG     1      85.082  88.642  93.070  1.00  0.00    -0.340 N 
HETATM    3  H   LIG     1      84.384  87.913  93.036  1.00  0.00     0.167 HD
BRANCH   2   4
HETATM    4  C   LIG     1      85.529  89.078  94.328  1.00  0.00     0.118 A 
HETATM    5  C   LIG     1      84.977  90.235  94.919  1.00  0.00     0.031 A 
HETATM    6  C   LIG     1      85.428  90.658  96.188  1.00  0.00    -0.017 A 
HETATM    7  C   LIG     1      86.426  89.909  96.847  1.00  0.00     0.014 A 
HETATM    8  C   LIG     1      84.844  91.896  96.837  1.00  0.00     0.031 C 
HETATM    9  C   LIG     1      86.946  88.761  96.217  1.00  0.00     0.073 A 
HETATM   10  N   LIG     1      86.484  88.395  95.003  1.00  0.00    -0.339 N 
HETATM   11  H   LIG     1      86.884  87.563  94.568  1.00  0.00     0.167 HD
ENDBRANCH   2   4
ENDBRANCH   1   2
BRANCH   1  12
HETATM   12  C   LIG     1      86.842  89.986  91.803  1.00  0.00     0.039 A 
HETATM   13  C   LIG     1      86.863  91.390  91.639  1.00  0.00     0.004 A 
HETATM   14  C   LIG     1      88.076  92.097  91.662  1.00  0.00     0.002 A 
HETATM   15  C   LIG     1      89.288  91.409  91.853  1.00  0.00     0.020 A 
HETATM   16  C   LIG     1      90.503  92.125  91.875  1.00  0.00     0.003 A 
HETATM   17  C   LIG     1      89.307  89.998  92.023  1.00  0.00     0.103 A 
HETATM   18  C   LIG     1      91.703  91.418  92.067  1.00  0.00     0.021 A 
HETATM   19  C   LIG     1      91.634  90.023  92.227  1.00  0.00     0.099 A 
HETATM   20  N   LIG     1      90.475  89.334  92.206  1.00  0.00    -0.242 NA
HETATM   21  C   LIG     1      88.072  89.300  91.995  1.00  0.00     0.108 A 
BRANCH  21  22
HETATM   22  O   LIG     1      88.077  87.938  92.151  1.00  0.00    -0.357 OA
HETATM   23  H   LIG     1      88.122  87.649  93.049  1.00  0.00     0.217 HD
ENDBRANCH  21  22
ENDBRANCH   1  12
BRANCH   1  24
HETATM   24  C   LIG     1      84.401  89.863  90.976  1.00  0.00     0.016 A 
HETATM   25  C   LIG     1      84.423  89.763  89.567  1.00  0.00     0.001 A 
HETATM   26  C   LIG     1      83.406  90.352  88.792  1.00  0.00     0.000 A 
HETATM   27  C   LIG     1      82.355  91.048  89.419  1.00  0.00     0.000 A 
HETATM   28  C   LIG     1      82.323  91.154  90.823  1.00  0.00     0.000 A 
HETATM   29  C   LIG     1      83.340  90.565  91.598  1.00  0.00     0.001 A 
ENDBRANCH   1  24
TORSDOF 5
ENDMDL
MODEL 3
REMARK VINA RESULT:      -0.0      5.972      9.151
REMARK  5 active torsions:
REMARK  status: ('A' for Active; 'I' for Inactive)
REMARK    1  A    between atoms: C_1  and  N_20 
REMARK    2  A    between atoms: C_1  and  C_8 
REMARK    3  A    between atoms: C_1  and  C_2 
REMARK    4  A    between atoms: C_9  and  O_18 
REMARK    5  A    between atoms: N_20  and  C_22 
ROOT
HETATM    1  C   LIG     1      93.800  94.947  90.573  1.00  0.00     0.060 C 
ENDROOT
BRANCH   1   2
HETATM    2  N   LIG     1      92.613  95.748  90.259  1.00  0.00    -0.340 N 
HETATM    3  H   LIG     1      92.341  95.802  89.288  1.00  0.00     0.167 HD
BRANCH   2   4
HETATM    4  C   LIG     1      91.864  96.475  91.201  1.00  0.00     0.118 A 
HETATM    5  C   LIG     1      92.307  97.741  91.639  1.00  0.00     0.031 A 
HETATM    6  C   LIG     1      91.542  98.465  92.579  1.00  0.00    -0.017 A 
HETATM    7  C   LIG     1      90.340  97.906  93.062  1.00  0.00     0.014 A 
HETATM    8  C   LIG     1      92.003  99.827  93.058  1.00  0.00     0.031 C 
HETATM    9  C   LIG     1      89.939  96.640  92.594  1.00  0.00     0.073 A 
HETATM   10  N   LIG     1      90.703  95.984  91.695  1.00  0.00    -0.339 N 
HETATM   11  H   LIG     1      90.391  95.065  91.378  1.00  0.00     0.167 HD
ENDBRANCH   2   4
ENDBRANCH   1   2
BRANCH   1  12
HETATM   12  C   LIG     1      93.967  94.527  92.042  1.00  0.00     0.039 A 
HETATM   13  C   LIG     1      94.979  95.089  92.854  1.00  0.00     0.004 A 
HETATM   14  C   LIG     1      95.119  94.703  94.196  1.00  0.00     0.002 A 
HETATM   15  C   LIG     1      94.245  93.749  94.750  1.00  0.00     0.020 A 
HETATM   16  C   LIG     1      94.390  93.366  96.099  1.00  0.00     0.003 A 
HETATM   17  C   LIG     1      93.214  93.163  93.965  1.00  0.00     0.103 A 
HETATM   18  C   LIG     1      93.506  92.410  96.631  1.00  0.00     0.021 A 
HETATM   19  C   LIG     1      92.514  91.880  95.788  1.00  0.00     0.099 A 
HETATM   20  N   LIG     1      92.372  92.242  94.497  1.00  0.00    -0.242 NA
HETATM   21  C   LIG     1      93.089  93.564  92.609  1.00  0.00     0.108 A 
BRANCH  21  22
HETATM   22  O   LIG     1      92.103  93.002  91.841  1.00  0.00    -0.357 OA
HETATM   23  H   LIG     1      91.988  92.074  91.972  1.00  0.00     0.217 HD
ENDBRANCH  21  22
ENDBRANCH   1  12
BRANCH   1  24
HETATM   24  C   LIG     1      95.086  95.442  89.905  1.00  0.00     0.016 A 
HETATM   25  C   LIG     1      96.044  94.496  89.476  1.00  0.00     0.001 A 
HETATM   26  C   LIG     1      97.234  94.917  88.852  1.00  0.00     0.000 A 
HETATM   27  C   LIG     1      97.477  96.288  88.649  1.00  0.00     0.000 A 
HETATM   28  C   LIG     1      96.529  97.239  89.071  1.00  0.00     0.000 A 
HETATM   29  C   LIG     1      95.339  96.819  89.696  1.00  0.00     0.001 A 
ENDBRANCH   1  24
TORSDOF 5
ENDMDL
MODEL 4
REMARK VINA RESULT:      -0.0      5.098      8.594
REMARK  5 active torsions:
REMARK  status: ('A' for Active; 'I' for Inactive)
REMARK    1  A    between atoms: C_1  and  N_20 
REMARK    2  A    between atoms: C_1  and  C_8 
REMARK    3  A    between atoms: C_1  and  C_2 
REMARK    4  A    between atoms: C_9  and  O_18 
REMARK    5  A    between atoms: N_20  and  C_22 
ROOT
HETATM    1  C   LIG     1      91.301  93.779  90.097  1.00  0.00     0.060 C 
ENDROOT
BRANCH   1   2
HETATM    2  N   LIG     1      90.113  94.580  89.784  1.00  0.00    -0.340 N 
HETATM    3  H   LIG     1      89.841  94.634  88.812  1.00  0.00     0.167 HD
BRANCH   2   4
HETATM    4  C   LIG     1      89.365  95.307  90.725  1.00  0.00     0.118 A 
HETATM    5  C   LIG     1      89.808  96.573  91.164  1.00  0.00     0.031 A 
HETATM    6  C   LIG     1      89.043  97.297  92.104  1.00  0.00    -0.017 A 
HETATM    7  C   LIG     1      87.840  96.738  92.587  1.00  0.00     0.014 A 
HETATM    8  C   LIG     1      89.503  98.658  92.583  1.00  0.00     0.031 C 
HETATM    9  C   LIG     1      87.439  95.472  92.119  1.00  0.00     0.073 A 
HETATM   10  N   LIG     1      88.203  94.815  91.220  1.00  0.00    -0.339 N 
HETATM   11  H   LIG     1      87.891  93.897  90.903  1.00  0.00     0.167 HD
ENDBRANCH   2   4
ENDBRANCH   1   2
BRANCH   1  12
HETATM   12  C   LIG     1      91.467  93.359  91.567  1.00  0.00     0.039 A 
HETATM   13  C   LIG     1      92.479  93.921  92.379  1.00  0.00     0.004 A 
HETATM   14  C   LIG     1      92.619  93.535  93.721  1.00  0.00     0.002 A 
HETATM   15  C   LIG     1      91.745  92.581  94.275  1.00  0.00     0.020 A 
HETATM   16  C   LIG     1      91.891  92.197  95.624  1.00  0.00     0.003 A 
HETATM   17  C   LIG     1      90.714  91.995  93.490  1.00  0.00     0.103 A 
HETATM   18  C   LIG     1      91.007  91.242  96.156  1.00  0.00     0.021 A 
HETATM   19  C   LIG     1      90.015  90.711  95.313  1.00  0.00     0.099 A 
HETATM   20  N   LIG     1      89.872  91.074  94.022  1.00  0.00    -0.242 NA
HETATM   21  C   LIG     1      90.590  92.395  92.134  1.00  0.00     0.108 A 
BRANCH  21  22
HETATM   22  O   LIG     1      89.604  91.833  91.366  1.00  0.00    -0.357 OA
HETATM   23  H   LIG     1      89.488  90.905  91.497  1.00  0.00     0.217 HD
ENDBRANCH  21  22
ENDBRANCH   1  12
BRANCH   1  24
HETATM   24  C   LIG     1      92.586  94.274  89.429  1.00  0.00     0.016 A 
HETATM   25  C   LIG     1      93.544  93.328  89.001  1.00  0.00     0.001 A 
HETATM   26  C   LIG     1      94.734  93.748  88.377  1.00  0.00     0.000 A 
HETATM   27  C   LIG     1      94.978  95.120  88.174  1.00  0.00     0.000 A 
HETATM   28  C   LIG     1      94.029  96.071  88.596  1.00  0.00     0.000 A 
HETATM   29  C   LIG     1      92.839  95.651  89.221  1.00  0.00     0.001 A 
ENDBRANCH   1  24
TORSDOF 5
ENDMDL
MODEL 5
REMARK VINA RESULT:      -0.0      4.787      8.488
REMARK  5 active torsions:
REMARK  status: ('A' for Active; 'I' for Inactive)
REMARK    1  A    between atoms: C_1  and  N_20 
REMARK    2  A    between atoms: C_1  and  C_8 
REMARK    3  A    between atoms: C_1  and  C_2 
REMARK    4  A    between atoms: C_9  and  O_18 
REMARK    5  A    between atoms: N_20  and  C_22 
ROOT
HETATM    1  C   LIG     1      93.165  92.718  87.757  1.00  0.00     0.060 C 
ENDROOT
BRANCH   1   2
HETATM    2  N   LIG     1      91.747  92.599  87.403  1.00  0.00    -0.340 N 
HETATM    3  H   LIG     1      91.496  91.857  86.766  1.00  0.00     0.167 HD
BRANCH   2   4
HETATM    4  C   LIG     1      90.734  93.466  87.848  1.00  0.00     0.118 A 
HETATM    5  C   LIG     1      90.539  94.715  87.220  1.00  0.00     0.031 A 
HETATM    6  C   LIG     1      89.513  95.573  87.672  1.00  0.00    -0.017 A 
HETATM    7  C   LIG     1      88.695  95.161  88.745  1.00  0.00     0.014 A 
HETATM    8  C   LIG     1      89.288  96.916  87.007  1.00  0.00     0.031 C 
HETATM    9  C   LIG     1      88.928  93.905  89.338  1.00  0.00     0.073 A 
HETATM   10  N   LIG     1      89.922  93.118  88.874  1.00  0.00    -0.339 N 
HETATM   11  H   LIG     1      90.072  92.216  89.328  1.00  0.00     0.167 HD
ENDBRANCH   2   4
ENDBRANCH   1   2
BRANCH   1  12
HETATM   12  C   LIG     1      93.484  93.547  89.012  1.00  0.00     0.039 A 
HETATM   13  C   LIG     1      94.112  94.810  88.915  1.00  0.00     0.004 A 
HETATM   14  C   LIG     1      94.394  95.562  90.066  1.00  0.00     0.002 A 
HETATM   15  C   LIG     1      94.048  95.062  91.336  1.00  0.00     0.020 A 
HETATM   16  C   LIG     1      94.334  95.823  92.488  1.00  0.00     0.003 A 
HETATM   17  C   LIG     1      93.414  93.797  91.473  1.00  0.00     0.103 A 
HETATM   18  C   LIG     1      93.980  95.304  93.747  1.00  0.00     0.021 A 
HETATM   19  C   LIG     1      93.356  94.045  93.796  1.00  0.00     0.099 A 
HETATM   20  N   LIG     1      93.082  93.314  92.696  1.00  0.00    -0.242 NA
HETATM   21  C   LIG     1      93.140  93.050  90.298  1.00  0.00     0.108 A 
BRANCH  21  22
HETATM   22  O   LIG     1      92.534  91.827  90.418  1.00  0.00    -0.357 OA
HETATM   23  H   LIG     1      91.844  91.794  91.062  1.00  0.00     0.217 HD
ENDBRANCH  21  22
ENDBRANCH   1  12
BRANCH   1  24
HETATM   24  C   LIG     1      94.089  92.987  86.567  1.00  0.00     0.016 A 
HETATM   25  C   LIG     1      95.381  92.416  86.558  1.00  0.00     0.001 A 
HETATM   26  C   LIG     1      96.254  92.637  85.475  1.00  0.00     0.000 A 
HETATM   27  C   LIG     1      95.842  93.433  84.389  1.00  0.00     0.000 A 
HETATM   28  C   LIG     1      94.557  94.007  84.388  1.00  0.00     0.000 A 
HETATM   29  C   LIG     1      93.684  93.786  85.471  1.00  0.00     0.001 A 
ENDBRANCH   1  24
TORSDOF 5
ENDMDL
MODEL 6
REMARK VINA RESULT:      -0.0      5.394     10.013
REMARK  5 active torsions:
REMARK  status: ('A' for Active; 'I' for Inactive)
REMARK    1  A    between atoms: C_1  and  N_20 
REMARK    2  A    between atoms: C_1  and  C_8 
REMARK    3  A    between atoms: C_1  and  C_2 
REMARK    4  A    between atoms: C_9  and  O_18 
REMARK    5  A    between atoms: N_20  and  C_22 
ROOT
HETATM    1  C   LIG     1      85.636  89.811  85.668  1.00  0.00     0.060 C 
ENDROOT
BRANCH   1   2
HETATM    2  N   LIG     1      85.831  91.263  85.593  1.00  0.00    -0.340 N 
HETATM    3  H   LIG     1      85.050  91.843  85.861  1.00  0.00     0.167 HD
BRANCH   2   4
HETATM    4  C   LIG     1      87.002  91.892  85.135  1.00  0.00     0.118 A 
HETATM    5  C   LIG     1      87.242  92.029  83.751  1.00  0.00     0.031 A 
HETATM    6  C   LIG     1      88.417  92.670  83.304  1.00  0.00    -0.017 A 
HETATM    7  C   LIG     1      89.333  93.167  84.256  1.00  0.00     0.014 A 
HETATM    8  C   LIG     1      88.689  92.829  81.822  1.00  0.00     0.031 C 
HETATM    9  C   LIG     1      89.049  93.007  85.626  1.00  0.00     0.073 A 
HETATM   10  N   LIG     1      87.912  92.386  86.007  1.00  0.00    -0.339 N 
HETATM   11  H   LIG     1      87.736  92.278  87.007  1.00  0.00     0.167 HD
ENDBRANCH   2   4
ENDBRANCH   1   2
BRANCH   1  12
HETATM   12  C   LIG     1      86.913  88.954  85.670  1.00  0.00     0.039 A 
HETATM   13  C   LIG     1      87.260  88.156  84.556  1.00  0.00     0.004 A 
HETATM   14  C   LIG     1      88.431  87.382  84.565  1.00  0.00     0.002 A 
HETATM   15  C   LIG     1      89.276  87.395  85.691  1.00  0.00     0.020 A 
HETATM   16  C   LIG     1      90.451  86.615  85.694  1.00  0.00     0.003 A 
HETATM   17  C   LIG     1      88.960  88.186  86.830  1.00  0.00     0.103 A 
HETATM   18  C   LIG     1      91.280  86.644  86.829  1.00  0.00     0.021 A 
HETATM   19  C   LIG     1      90.896  87.452  87.913  1.00  0.00     0.099 A 
HETATM   20  N   LIG     1      89.773  88.199  87.915  1.00  0.00    -0.242 NA
HETATM   21  C   LIG     1      87.772  88.961  86.803  1.00  0.00     0.108 A 
BRANCH  21  22
HETATM   22  O   LIG     1      87.453  89.723  87.897  1.00  0.00    -0.357 OA
HETATM   23  H   LIG     1      86.969  90.508  87.697  1.00  0.00     0.217 HD
ENDBRANCH  21  22
ENDBRANCH   1  12
BRANCH   1  24
HETATM   24  C   LIG     1      84.517  89.280  84.769  1.00  0.00     0.016 A 
HETATM   25  C   LIG     1      83.731  88.196  85.219  1.00  0.00     0.001 A 
HETATM   26  C   LIG     1      82.689  87.688  84.420  1.00  0.00     0.000 A 
HETATM   27  C   LIG     1      82.422  88.260  83.162  1.00  0.00     0.000 A 
HETATM   28  C   LIG     1      83.199  89.342  82.704  1.00  0.00     0.000 A 
HETATM   29  C   LIG     1      84.241  89.850  83.503  1.00  0.00     0.001 A 
ENDBRANCH   1  24
TORSDOF 5
ENDMDL
MODEL 7
REMARK VINA RESULT:      -0.0      4.336      8.430
REMARK  5 active torsions:
REMARK  status: ('A' for Active; 'I' for Inactive)
REMARK    1  A    between atoms: C_1  and  N_20 
REMARK    2  A    between atoms: C_1  and  C_8 
REMARK    3  A    between atoms: C_1  and  C_2 
REMARK    4  A    between atoms: C_9  and  O_18 
REMARK    5  A    between atoms: N_20  and  C_22 
ROOT
HETATM    1  C   LIG     1      86.762  91.480  88.727  1.00  0.00     0.060 C 
ENDROOT
BRANCH   1   2
HETATM    2  N   LIG     1      86.641  92.130  90.036  1.00  0.00    -0.340 N 
HETATM    3  H   LIG     1      85.772  91.999  90.533  1.00  0.00     0.167 HD
BRANCH   2   4
HETATM    4  C   LIG     1      87.623  92.951  90.617  1.00  0.00     0.118 A 
HETATM    5  C   LIG     1      87.746  94.301  90.226  1.00  0.00     0.031 A 
HETATM    6  C   LIG     1      88.731  95.117  90.823  1.00  0.00    -0.017 A 
HETATM    7  C   LIG     1      89.576  94.564  91.809  1.00  0.00     0.014 A 
HETATM    8  C   LIG     1      88.874  96.570  90.416  1.00  0.00     0.031 C 
HETATM    9  C   LIG     1      89.414  93.212  92.166  1.00  0.00     0.073 A 
HETATM   10  N   LIG     1      88.459  92.469  91.568  1.00  0.00    -0.339 N 
HETATM   11  H   LIG     1      88.369  91.490  91.842  1.00  0.00     0.167 HD
ENDBRANCH   2   4
ENDBRANCH   1   2
BRANCH   1  12
HETATM   12  C   LIG     1      88.188  91.327  88.174  1.00  0.00     0.039 A 
HETATM   13  C   LIG     1      88.630  92.089  87.068  1.00  0.00     0.004 A 
HETATM   14  C   LIG     1      89.936  91.947  86.574  1.00  0.00     0.002 A 
HETATM   15  C   LIG     1      90.824  91.040  87.182  1.00  0.00     0.020 A 
HETATM   16  C   LIG     1      92.135  90.902  86.682  1.00  0.00     0.003 A 
HETATM   17  C   LIG     1      90.417  90.258  88.298  1.00  0.00     0.103 A 
HETATM   18  C   LIG     1      93.005  89.990  87.304  1.00  0.00     0.021 A 
HETATM   19  C   LIG     1      92.524  89.256  88.402  1.00  0.00     0.099 A 
HETATM   20  N   LIG     1      91.271  89.384  88.884  1.00  0.00    -0.242 NA
HETATM   21  C   LIG     1      89.092  90.414  88.781  1.00  0.00     0.108 A 
BRANCH  21  22
HETATM   22  O   LIG     1      88.686  89.661  89.852  1.00  0.00    -0.357 OA
HETATM   23  H   LIG     1      89.391  89.319  90.378  1.00  0.00     0.217 HD
ENDBRANCH  21  22
ENDBRANCH   1  12
BRANCH   1  24
HETATM   24  C   LIG     1      85.728  91.945  87.697  1.00  0.00     0.016 A 
HETATM   25  C   LIG     1      85.217  91.011  86.769  1.00  0.00     0.001 A 
HETATM   26  C   LIG     1      84.260  91.403  85.813  1.00  0.00     0.000 A 
HETATM   27  C   LIG     1      83.804  92.734  85.777  1.00  0.00     0.000 A 
HETATM   28  C   LIG     1      84.306  93.672  86.699  1.00  0.00     0.000 A 
HETATM   29  C   LIG     1      85.264  93.281  87.654  1.00  0.00     0.001 A 
ENDBRANCH   1  24
TORSDOF 5
ENDMDL
MODEL 8
REMARK VINA RESULT:      -0.0      4.351      6.724
REMARK  5 active torsions:
REMARK  status: ('A' for Active; 'I' for Inactive)
REMARK    1  A    between atoms: C_1  and  N_20 
REMARK    2  A    between atoms: C_1  and  C_8 
REMARK    3  A    between atoms: C_1  and  C_2 
REMARK    4  A    between atoms: C_9  and  O_18 
REMARK    5  A    between atoms: N_20  and  C_22 
ROOT
HETATM    1  C   LIG     1      91.179  91.810  88.629  1.00  0.00     0.060 C 
ENDROOT
BRANCH   1   2
HETATM    2  N   LIG     1      91.331  92.515  87.352  1.00  0.00    -0.340 N 
HETATM    3  H   LIG     1      92.275  92.682  87.032  1.00  0.00     0.167 HD
BRANCH   2   4
HETATM    4  C   LIG     1      90.268  93.008  86.576  1.00  0.00     0.118 A 
HETATM    5  C   LIG     1      89.655  94.236  86.905  1.00  0.00     0.031 A 
HETATM    6  C   LIG     1      88.594  94.724  86.113  1.00  0.00    -0.017 A 
HETATM    7  C   LIG     1      88.166  93.972  84.999  1.00  0.00     0.014 A 
HETATM    8  C   LIG     1      87.927  96.042  86.452  1.00  0.00     0.031 C 
HETATM    9  C   LIG     1      88.810  92.753  84.710  1.00  0.00     0.073 A 
HETATM   10  N   LIG     1      89.820  92.325  85.496  1.00  0.00    -0.339 N 
HETATM   11  H   LIG     1      90.264  91.434  85.266  1.00  0.00     0.167 HD
ENDBRANCH   2   4
ENDBRANCH   1   2
BRANCH   1  12
HETATM   12  C   LIG     1      89.796  91.197  88.905  1.00  0.00     0.039 A 
HETATM   13  C   LIG     1      88.939  91.740  89.889  1.00  0.00     0.004 A 
HETATM   14  C   LIG     1      87.675  91.176  90.130  1.00  0.00     0.002 A 
HETATM   15  C   LIG     1      87.248  90.061  89.385  1.00  0.00     0.020 A 
HETATM   16  C   LIG     1      85.978  89.500  89.631  1.00  0.00     0.003 A 
HETATM   17  C   LIG     1      88.082  89.489  88.386  1.00  0.00     0.103 A 
HETATM   18  C   LIG     1      85.572  88.386  88.876  1.00  0.00     0.021 A 
HETATM   19  C   LIG     1      86.457  87.881  87.907  1.00  0.00     0.099 A 
HETATM   20  N   LIG     1      87.673  88.414  87.669  1.00  0.00    -0.242 NA
HETATM   21  C   LIG     1      89.357  90.071  88.159  1.00  0.00     0.108 A 
BRANCH  21  22
HETATM   22  O   LIG     1      90.172  89.525  87.202  1.00  0.00    -0.357 OA
HETATM   23  H   LIG     1      89.863  89.634  86.317  1.00  0.00     0.217 HD
ENDBRANCH  21  22
ENDBRANCH   1  12
BRANCH   1  24
HETATM   24  C   LIG     1      91.802  92.536  89.825  1.00  0.00     0.016 A 
HETATM   25  C   LIG     1      92.398  91.775  90.855  1.00  0.00     0.001 A 
HETATM   26  C   LIG     1      92.985  92.410  91.965  1.00  0.00     0.000 A 
HETATM   27  C   LIG     1      92.984  93.815  92.056  1.00  0.00     0.000 A 
HETATM   28  C   LIG     1      92.394  94.583  91.034  1.00  0.00     0.000 A 
HETATM   29  C   LIG     1      91.805  93.948  89.924  1.00  0.00     0.001 A 
ENDBRANCH   1  24
TORSDOF 5
ENDMDL
MODEL 9
REMARK VINA RESULT:      -0.0      3.689      6.434
REMARK  5 active torsions:
REMARK  status: ('A' for Active; 'I' for Inactive)
REMARK    1  A    between atoms: C_1  and  N_20 
REMARK    2  A    between atoms: C_1  and  C_8 
REMARK    3  A    between atoms: C_1  and  C_2 
REMARK    4  A    between atoms: C_9  and  O_18 
REMARK    5  A    between atoms: N_20  and  C_22 
ROOT
HETATM    1  C   LIG     1      91.739  87.542  90.330  1.00  0.00     0.060 C 
ENDROOT
BRANCH   1   2
HETATM    2  N   LIG     1      91.418  88.239  91.580  1.00  0.00    -0.340 N 
HETATM    3  H   LIG     1      91.769  89.181  91.680  1.00  0.00     0.167 HD
BRANCH   2   4
HETATM    4  C   LIG     1      90.703  87.677  92.651  1.00  0.00     0.118 A 
HETATM    5  C   LIG     1      91.353  86.828  93.573  1.00  0.00     0.031 A 
HETATM    6  C   LIG     1      90.626  86.276  94.650  1.00  0.00    -0.017 A 
HETATM    7  C   LIG     1      89.257  86.589  94.786  1.00  0.00     0.014 A 
HETATM    8  C   LIG     1      91.308  85.366  95.650  1.00  0.00     0.031 C 
HETATM    9  C   LIG     1      88.653  87.442  93.841  1.00  0.00     0.073 A 
HETATM   10  N   LIG     1      89.388  87.946  92.827  1.00  0.00    -0.339 N 
HETATM   11  H   LIG     1      88.923  88.555  92.153  1.00  0.00     0.167 HD
ENDBRANCH   2   4
ENDBRANCH   1   2
BRANCH   1  12
HETATM   12  C   LIG     1      90.881  86.309  90.001  1.00  0.00     0.039 A 
HETATM   13  C   LIG     1      91.421  85.004  90.064  1.00  0.00     0.004 A 
HETATM   14  C   LIG     1      90.628  83.884  89.768  1.00  0.00     0.002 A 
HETATM   15  C   LIG     1      89.278  84.053  89.406  1.00  0.00     0.020 A 
HETATM   16  C   LIG     1      88.487  82.924  89.110  1.00  0.00     0.003 A 
HETATM   17  C   LIG     1      88.700  85.350  89.334  1.00  0.00     0.103 A 
HETATM   18  C   LIG     1      87.141  83.116  88.750  1.00  0.00     0.021 A 
HETATM   19  C   LIG     1      86.646  84.432  88.703  1.00  0.00     0.099 A 
HETATM   20  N   LIG     1      87.400  85.514  88.984  1.00  0.00    -0.242 NA
HETATM   21  C   LIG     1      89.518  86.470  89.635  1.00  0.00     0.108 A 
BRANCH  21  22
HETATM   22  O   LIG     1      88.973  87.725  89.563  1.00  0.00    -0.357 OA
HETATM   23  H   LIG     1      88.086  87.784  89.879  1.00  0.00     0.217 HD
ENDBRANCH  21  22
ENDBRANCH   1  12
BRANCH   1  24
HETATM   24  C   LIG     1      93.239  87.356  90.083  1.00  0.00     0.016 A 
HETATM   25  C   LIG     1      93.730  87.426  88.760  1.00  0.00     0.001 A 
HETATM   26  C   LIG     1      95.104  87.267  88.498  1.00  0.00     0.000 A 
HETATM   27  C   LIG     1      96.002  87.036  89.557  1.00  0.00     0.000 A 
HETATM   28  C   LIG     1      95.523  86.964  90.879  1.00  0.00     0.000 A 
HETATM   29  C   LIG     1      94.149  87.123  91.142  1.00  0.00     0.001 A 
ENDBRANCH   1  24
TORSDOF 5
ENDMDL
