MODEL 1
REMARK VINA RESULT:      -0.0      0.000      0.000
REMARK  9 active torsions:
REMARK  status: ('A' for Active; 'I' for Inactive)
REMARK    1  A    between atoms: C_2  and  C_7 
REMARK    2  A    between atoms: C_3  and  O_13 
REMARK    3  A    between atoms: C_4  and  C_15 
REMARK    4  A    between atoms: C_7  and  O_8 
REMARK    5  A    between atoms: C_7  and  C_10 
REMARK    6  A    between atoms: C_10  and  O_11 
REMARK    7  A    between atoms: C_15  and  O_16 
REMARK    8  A    between atoms: C_15  and  C_18 
REMARK    9  A    between atoms: C_18  and  O_19 
ROOT
HETATM    1  O   LIG     1      85.810  89.466  90.017  1.00  0.00    -0.325 OA
HETATM    2  C   LIG     1      84.691  88.587  90.011  1.00  0.00     0.176 C 
HETATM    3  C   LIG     1      83.437  89.377  89.572  1.00  0.00     0.170 C 
HETATM    4  C   LIG     1      83.271  90.667  90.416  1.00  0.00     0.176 C 
HETATM    5  O   LIG     1      84.524  91.351  90.380  1.00  0.00    -0.325 OA
HETATM    6  C   LIG     1      85.613  90.591  90.810  1.00  0.00     0.294 C 
ENDROOT
BRANCH   2   7
HETATM    7  C   LIG     1      85.027  87.354  89.140  1.00  0.00     0.170 C 
BRANCH   7   8
HETATM    8  O   LIG     1      84.086  86.320  89.355  1.00  0.00    -0.380 OA
HETATM    9  H   LIG     1      83.301  86.539  88.876  1.00  0.00     0.211 HD
ENDBRANCH   7   8
BRANCH   7  10
HETATM   10  C   LIG     1      85.080  87.682  87.638  1.00  0.00     0.169 C 
BRANCH  10  11
HETATM   11  O   LIG     1      86.219  88.468  87.353  1.00  0.00    -0.380 OA
HETATM   12  H   LIG     1      86.794  87.973  86.788  1.00  0.00     0.211 HD
ENDBRANCH  10  11
ENDBRANCH   7  10
ENDBRANCH   2   7
BRANCH   3  13
HETATM   13  O   LIG     1      82.287  88.554  89.639  1.00  0.00    -0.380 OA
HETATM   14  H   LIG     1      81.831  88.610  88.812  1.00  0.00     0.211 HD
ENDBRANCH   3  13
BRANCH   4  15
HETATM   15  C   LIG     1      82.769  90.490  91.880  1.00  0.00     0.170 C 
BRANCH  15  16
HETATM   16  O   LIG     1      81.465  89.941  91.859  1.00  0.00    -0.380 OA
HETATM   17  H   LIG     1      81.054  90.205  91.049  1.00  0.00     0.211 HD
ENDBRANCH  15  16
BRANCH  15  18
HETATM   18  C   LIG     1      82.642  91.828  92.635  1.00  0.00     0.169 C 
BRANCH  18  19
HETATM   19  O   LIG     1      82.475  92.889  91.715  1.00  0.00    -0.380 OA
HETATM   20  H   LIG     1      83.032  92.730  90.968  1.00  0.00     0.211 HD
ENDBRANCH  18  19
ENDBRANCH  15  18
ENDBRANCH   4  15
TORSDOF 9
ENDMDL
MODEL 2
REMARK VINA RESULT:      -0.0     10.254     11.584
REMARK  9 active torsions:
REMARK  status: ('A' for Active; 'I' for Inactive)
REMARK    1  A    between atoms: C_2  and  C_7 
REMARK    2  A    between atoms: C_3  and  O_13 
REMARK    3  A    between atoms: C_4  and  C_15 
REMARK    4  A    between atoms: C_7  and  O_8 
REMARK    5  A    between atoms: C_7  and  C_10 
REMARK    6  A    between atoms: C_10  and  O_11 
REMARK    7  A    between atoms: C_15  and  O_16 
REMARK    8  A    between atoms: C_15  and  C_18 
REMARK    9  A    between atoms: C_18  and  O_19 
ROOT
HETATM    1  O   LIG     1      95.764  92.550  88.677  1.00  0.00    -0.325 OA
HETATM    2  C   LIG     1      94.611  93.045  88.005  1.00  0.00     0.176 C 
HETATM    3  C   LIG     1      94.374  94.511  88.433  1.00  0.00     0.170 C 
HETATM    4  C   LIG     1      94.357  94.641  89.979  1.00  0.00     0.176 C 
HETATM    5  O   LIG     1      95.536  93.998  90.463  1.00  0.00    -0.325 OA
HETATM    6  C   LIG     1      95.680  92.669  90.060  1.00  0.00     0.294 C 
ENDROOT
BRANCH   2   7
HETATM    7  C   LIG     1      94.786  92.827  86.484  1.00  0.00     0.170 C 
BRANCH   7   8
HETATM    8  O   LIG     1      93.556  93.008  85.810  1.00  0.00    -0.380 OA
HETATM    9  H   LIG     1      93.166  93.807  86.129  1.00  0.00     0.211 HD
ENDBRANCH   7   8
BRANCH   7  10
HETATM   10  C   LIG     1      95.841  93.760  85.865  1.00  0.00     0.169 C 
BRANCH  10  11
HETATM   11  O   LIG     1      97.134  93.381  86.291  1.00  0.00    -0.380 OA
HETATM   12  H   LIG     1      97.443  92.682  85.734  1.00  0.00     0.211 HD
ENDBRANCH  10  11
ENDBRANCH   7  10
ENDBRANCH   2   7
BRANCH   3  13
HETATM   13  O   LIG     1      93.185  95.009  87.851  1.00  0.00    -0.380 OA
HETATM   14  H   LIG     1      93.086  94.623  86.993  1.00  0.00     0.211 HD
ENDBRANCH   3  13
BRANCH   4  15
HETATM   15  C   LIG     1      93.088  94.117  90.714  1.00  0.00     0.170 C 
BRANCH  15  16
HETATM   16  O   LIG     1      91.968  94.881  90.306  1.00  0.00    -0.380 OA
HETATM   17  H   LIG     1      91.199  94.340  90.407  1.00  0.00     0.211 HD
ENDBRANCH  15  16
BRANCH  15  18
HETATM   18  C   LIG     1      93.169  94.287  92.244  1.00  0.00     0.169 C 
BRANCH  18  19
HETATM   19  O   LIG     1      94.070  95.328  92.568  1.00  0.00    -0.380 OA
HETATM   20  H   LIG     1      94.862  95.207  92.066  1.00  0.00     0.211 HD
ENDBRANCH  18  19
ENDBRANCH  15  18
ENDBRANCH   4  15
TORSDOF 9
ENDMDL
MODEL 3
REMARK VINA RESULT:      -0.0     12.865     13.902
REMARK  9 active torsions:
REMARK  status: ('A' for Active; 'I' for Inactive)
REMARK    1  A    between atoms: C_2  and  C_7 
REMARK    2  A    between atoms: C_3  and  O_13 
REMARK    3  A    between atoms: C_4  and  C_15 
REMARK    4  A    between atoms: C_7  and  O_8 
REMARK    5  A    between atoms: C_7  and  C_10 
REMARK    6  A    between atoms: C_10  and  O_11 
REMARK    7  A    between atoms: C_15  and  O_16 
REMARK    8  A    between atoms: C_15  and  C_18 
REMARK    9  A    between atoms: C_18  and  O_19 
ROOT
HETATM    1  O   LIG     1      96.524  86.839  98.598  1.00  0.00    -0.325 OA
HETATM    2  C   LIG     1      95.333  86.173  99.003  1.00  0.00     0.176 C 
HETATM    3  C   LIG     1      94.159  86.673  98.131  1.00  0.00     0.170 C 
HETATM    4  C   LIG     1      94.092  88.222  98.126  1.00  0.00     0.176 C 
HETATM    5  O   LIG     1      95.400  88.694  97.801  1.00  0.00    -0.325 OA
HETATM    6  C   LIG     1      96.412  88.225  98.640  1.00  0.00     0.294 C 
ENDROOT
BRANCH   2   7
HETATM    7  C   LIG     1      95.575  84.646  98.963  1.00  0.00     0.170 C 
BRANCH   7   8
HETATM    8  O   LIG     1      94.545  83.960  99.647  1.00  0.00    -0.380 OA
HETATM    9  H   LIG     1      94.897  83.136  99.949  1.00  0.00     0.211 HD
ENDBRANCH   7   8
BRANCH   7  10
HETATM   10  C   LIG     1      95.681  84.096  97.530  1.00  0.00     0.169 C 
BRANCH  10  11
HETATM   11  O   LIG     1      96.888  84.524  96.934  1.00  0.00    -0.380 OA
HETATM   12  H   LIG     1      97.152  85.337  97.338  1.00  0.00     0.211 HD
ENDBRANCH  10  11
ENDBRANCH   7  10
ENDBRANCH   2   7
BRANCH   3  13
HETATM   13  O   LIG     1      92.942  86.095  98.563  1.00  0.00    -0.380 OA
HETATM   14  H   LIG     1      93.062  85.160  98.633  1.00  0.00     0.211 HD
ENDBRANCH   3  13
BRANCH   4  15
HETATM   15  C   LIG     1      93.553  88.905  99.418  1.00  0.00     0.170 C 
BRANCH  15  16
HETATM   16  O   LIG     1      92.206  88.518  99.619  1.00  0.00    -0.380 OA
HETATM   17  H   LIG     1      92.186  87.918 100.349  1.00  0.00     0.211 HD
ENDBRANCH  15  16
BRANCH  15  18
HETATM   18  C   LIG     1      93.530  90.444  99.316  1.00  0.00     0.169 C 
BRANCH  18  19
HETATM   19  O   LIG     1      93.470  90.838  97.960  1.00  0.00    -0.380 OA
HETATM   20  H   LIG     1      94.351  90.884  97.621  1.00  0.00     0.211 HD
ENDBRANCH  18  19
ENDBRANCH  15  18
ENDBRANCH   4  15
TORSDOF 9
ENDMDL
MODEL 4
REMARK VINA RESULT:      -0.0      8.935     10.893
REMARK  9 active torsions:
REMARK  status: ('A' for Active; 'I' for Inactive)
REMARK    1  A    between atoms: C_2  and  C_7 
REMARK    2  A    between atoms: C_3  and  O_13 
REMARK    3  A    between atoms: C_4  and  C_15 
REMARK    4  A    between atoms: C_7  and  O_8 
REMARK    5  A    between atoms: C_7  and  C_10 
REMARK    6  A    between atoms: C_10  and  O_11 
REMARK    7  A    between atoms: C_15  and  O_16 
REMARK    8  A    between atoms: C_15  and  C_18 
REMARK    9  A    between atoms: C_18  and  O_19 
ROOT
HETATM    1  O   LIG     1      93.882  84.077  88.619  1.00  0.00    -0.325 OA
HETATM    2  C   LIG     1      92.774  83.379  88.062  1.00  0.00     0.176 C 
HETATM    3  C   LIG     1      92.648  83.751  86.567  1.00  0.00     0.170 C 
HETATM    4  C   LIG     1      92.634  85.291  86.378  1.00  0.00     0.176 C 
HETATM    5  O   LIG     1      93.758  85.807  87.091  1.00  0.00    -0.325 OA
HETATM    6  C   LIG     1      93.801  85.455  88.441  1.00  0.00     0.294 C 
ENDROOT
BRANCH   2   7
HETATM    7  C   LIG     1      92.937  81.868  88.350  1.00  0.00     0.170 C 
BRANCH   7   8
HETATM    8  O   LIG     1      91.728  81.180  88.101  1.00  0.00    -0.380 OA
HETATM    9  H   LIG     1      91.884  80.259  88.248  1.00  0.00     0.211 HD
ENDBRANCH   7   8
BRANCH   7  10
HETATM   10  C   LIG     1      94.064  81.223  87.526  1.00  0.00     0.169 C 
BRANCH  10  11
HETATM   11  O   LIG     1      95.322  81.673  87.986  1.00  0.00    -0.380 OA
HETATM   12  H   LIG     1      95.558  82.451  87.505  1.00  0.00     0.211 HD
ENDBRANCH  10  11
ENDBRANCH   7  10
ENDBRANCH   2   7
BRANCH   3  13
HETATM   13  O   LIG     1      91.503  83.142  86.002  1.00  0.00    -0.380 OA
HETATM   14  H   LIG     1      90.952  82.829  86.704  1.00  0.00     0.211 HD
ENDBRANCH   3  13
BRANCH   4  15
HETATM   15  C   LIG     1      91.326  86.035  86.775  1.00  0.00     0.170 C 
BRANCH  15  16
HETATM   16  O   LIG     1      90.270  85.592  85.943  1.00  0.00    -0.380 OA
HETATM   17  H   LIG     1      90.580  84.839  85.462  1.00  0.00     0.211 HD
ENDBRANCH  15  16
BRANCH  15  18
HETATM   18  C   LIG     1      91.413  87.559  86.554  1.00  0.00     0.169 C 
BRANCH  18  19
HETATM   19  O   LIG     1      92.390  87.850  85.574  1.00  0.00    -0.380 OA
HETATM   20  H   LIG     1      93.126  88.266  85.997  1.00  0.00     0.211 HD
ENDBRANCH  18  19
ENDBRANCH  15  18
ENDBRANCH   4  15
TORSDOF 9
ENDMDL
MODEL 5
REMARK VINA RESULT:      -0.0     12.986     15.090
REMARK  9 active torsions:
REMARK  status: ('A' for Active; 'I' for Inactive)
REMARK    1  A    between atoms: C_2  and  C_7 
REMARK    2  A    between atoms: C_3  and  O_13 
REMARK    3  A    between atoms: C_4  and  C_15 
REMARK    4  A    between atoms: C_7  and  O_8 
REMARK    5  A    between atoms: C_7  and  C_10 
REMARK    6  A    between atoms: C_10  and  O_11 
REMARK    7  A    between atoms: C_15  and  O_16 
REMARK    8  A    between atoms: C_15  and  C_18 
REMARK    9  A    between atoms: C_18  and  O_19 
ROOT
HETATM    1  O   LIG     1      95.088  93.518  85.070  1.00  0.00    -0.325 OA
HETATM    2  C   LIG     1      96.493  93.742  85.019  1.00  0.00     0.176 C 
HETATM    3  C   LIG     1      96.757  95.264  85.012  1.00  0.00     0.170 C 
HETATM    4  C   LIG     1      95.926  95.966  83.906  1.00  0.00     0.176 C 
HETATM    5  O   LIG     1      94.574  95.535  84.065  1.00  0.00    -0.325 OA
HETATM    6  C   LIG     1      94.400  94.150  84.039  1.00  0.00     0.294 C 
ENDROOT
BRANCH   2   7
HETATM    7  C   LIG     1      97.166  92.965  86.175  1.00  0.00     0.170 C 
BRANCH   7   8
HETATM    8  O   LIG     1      98.565  92.897  85.982  1.00  0.00    -0.380 OA
HETATM    9  H   LIG     1      98.721  92.655  85.082  1.00  0.00     0.211 HD
ENDBRANCH   7   8
BRANCH   7  10
HETATM   10  C   LIG     1      96.876  93.580  87.555  1.00  0.00     0.169 C 
BRANCH  10  11
HETATM   11  O   LIG     1      95.525  93.368  87.907  1.00  0.00    -0.380 OA
HETATM   12  H   LIG     1      95.367  92.437  87.951  1.00  0.00     0.211 HD
ENDBRANCH  10  11
ENDBRANCH   7  10
ENDBRANCH   2   7
BRANCH   3  13
HETATM   13  O   LIG     1      98.141  95.524  84.875  1.00  0.00    -0.380 OA
HETATM   14  H   LIG     1      98.265  96.102  84.136  1.00  0.00     0.211 HD
ENDBRANCH   3  13
BRANCH   4  15
HETATM   15  C   LIG     1      96.408  95.776  82.438  1.00  0.00     0.170 C 
BRANCH  15  16
HETATM   16  O   LIG     1      97.695  96.347  82.295  1.00  0.00    -0.380 OA
HETATM   17  H   LIG     1      98.216  96.070  83.034  1.00  0.00     0.211 HD
ENDBRANCH  15  16
BRANCH  15  18
HETATM   18  C   LIG     1      95.515  96.507  81.415  1.00  0.00     0.169 C 
BRANCH  18  19
HETATM   19  O   LIG     1      94.841  97.580  82.042  1.00  0.00    -0.380 OA
HETATM   20  H   LIG     1      94.519  97.284  82.880  1.00  0.00     0.211 HD
ENDBRANCH  18  19
ENDBRANCH  15  18
ENDBRANCH   4  15
TORSDOF 9
ENDMDL
MODEL 6
REMARK VINA RESULT:      -0.0      7.577      8.869
REMARK  9 active torsions:
REMARK  status: ('A' for Active; 'I' for Inactive)
REMARK    1  A    between atoms: C_2  and  C_7 
REMARK    2  A    between atoms: C_3  and  O_13 
REMARK    3  A    between atoms: C_4  and  C_15 
REMARK    4  A    between atoms: C_7  and  O_8 
REMARK    5  A    between atoms: C_7  and  C_10 
REMARK    6  A    between atoms: C_10  and  O_11 
REMARK    7  A    between atoms: C_15  and  O_16 
REMARK    8  A    between atoms: C_15  and  C_18 
REMARK    9  A    between atoms: C_18  and  O_19 
ROOT
HETATM    1  O   LIG     1      88.740  81.338  86.894  1.00  0.00    -0.325 OA
HETATM    2  C   LIG     1      87.687  81.957  87.622  1.00  0.00     0.176 C 
HETATM    3  C   LIG     1      87.846  83.491  87.524  1.00  0.00     0.170 C 
HETATM    4  C   LIG     1      89.281  83.926  87.921  1.00  0.00     0.176 C 
HETATM    5  O   LIG     1      90.184  83.123  87.161  1.00  0.00    -0.325 OA
HETATM    6  C   LIG     1      90.003  81.747  87.311  1.00  0.00     0.294 C 
ENDROOT
BRANCH   2   7
HETATM    7  C   LIG     1      86.334  81.405  87.113  1.00  0.00     0.170 C 
BRANCH   7   8
HETATM    8  O   LIG     1      85.290  81.745  88.004  1.00  0.00    -0.380 OA
HETATM    9  H   LIG     1      84.487  81.786  87.507  1.00  0.00     0.211 HD
ENDBRANCH   7   8
BRANCH   7  10
HETATM   10  C   LIG     1      85.977  81.907  85.704  1.00  0.00     0.169 C 
BRANCH  10  11
HETATM   11  O   LIG     1      86.831  81.315  84.747  1.00  0.00    -0.380 OA
HETATM   12  H   LIG     1      87.304  80.609  85.161  1.00  0.00     0.211 HD
ENDBRANCH  10  11
ENDBRANCH   7  10
ENDBRANCH   2   7
BRANCH   3  13
HETATM   13  O   LIG     1      86.864  84.140  88.310  1.00  0.00    -0.380 OA
HETATM   14  H   LIG     1      86.643  83.579  89.038  1.00  0.00     0.211 HD
ENDBRANCH   3  13
BRANCH   4  15
HETATM   15  C   LIG     1      89.632  83.887  89.438  1.00  0.00     0.170 C 
BRANCH  15  16
HETATM   16  O   LIG     1      88.807  84.806  90.129  1.00  0.00    -0.380 OA
HETATM   17  H   LIG     1      87.913  84.506  90.049  1.00  0.00     0.211 HD
ENDBRANCH  15  16
BRANCH  15  18
HETATM   18  C   LIG     1      91.080  84.332  89.729  1.00  0.00     0.169 C 
BRANCH  18  19
HETATM   19  O   LIG     1      91.549  85.162  88.685  1.00  0.00    -0.380 OA
HETATM   20  H   LIG     1      92.483  85.268  88.781  1.00  0.00     0.211 HD
ENDBRANCH  18  19
ENDBRANCH  15  18
ENDBRANCH   4  15
TORSDOF 9
ENDMDL
MODEL 7
REMARK VINA RESULT:      -0.0      8.419      9.574
REMARK  9 active torsions:
REMARK  status: ('A' for Active; 'I' for Inactive)
REMARK    1  A    between atoms: C_2  and  C_7 
REMARK    2  A    between atoms: C_3  and  O_13 
REMARK    3  A    between atoms: C_4  and  C_15 
REMARK    4  A    between atoms: C_7  and  O_8 
REMARK    5  A    between atoms: C_7  and  C_10 
REMARK    6  A    between atoms: C_10  and  O_11 
REMARK    7  A    between atoms: C_15  and  O_16 
REMARK    8  A    between atoms: C_15  and  C_18 
REMARK    9  A    between atoms: C_18  and  O_19 
ROOT
HETATM    1  O   LIG     1      90.818  83.224  89.917  1.00  0.00    -0.325 OA
HETATM    2  C   LIG     1      91.320  83.899  91.065  1.00  0.00     0.176 C 
HETATM    3  C   LIG     1      90.904  85.385  90.995  1.00  0.00     0.170 C 
HETATM    4  C   LIG     1      91.294  86.006  89.628  1.00  0.00     0.176 C 
HETATM    5  O   LIG     1      90.791  85.134  88.616  1.00  0.00    -0.325 OA
HETATM    6  C   LIG     1      91.222  83.811  88.722  1.00  0.00     0.294 C 
ENDROOT
BRANCH   2   7
HETATM    7  C   LIG     1      90.852  83.146  92.333  1.00  0.00     0.170 C 
BRANCH   7   8
HETATM    8  O   LIG     1      91.574  83.583  93.468  1.00  0.00    -0.380 OA
HETATM    9  H   LIG     1      90.963  83.672  94.183  1.00  0.00     0.211 HD
ENDBRANCH   7   8
BRANCH   7  10
HETATM   10  C   LIG     1      89.346  83.310  92.601  1.00  0.00     0.169 C 
BRANCH  10  11
HETATM   11  O   LIG     1      88.600  82.598  91.634  1.00  0.00    -0.380 OA
HETATM   12  H   LIG     1      89.104  81.848  91.358  1.00  0.00     0.211 HD
ENDBRANCH  10  11
ENDBRANCH   7  10
ENDBRANCH   2   7
BRANCH   3  13
HETATM   13  O   LIG     1      91.460  86.106  92.078  1.00  0.00    -0.380 OA
HETATM   14  H   LIG     1      91.422  85.562  92.851  1.00  0.00     0.211 HD
ENDBRANCH   3  13
BRANCH   4  15
HETATM   15  C   LIG     1      92.804  86.316  89.404  1.00  0.00     0.170 C 
BRANCH  15  16
HETATM   16  O   LIG     1      93.221  87.292  90.340  1.00  0.00    -0.380 OA
HETATM   17  H   LIG     1      93.574  88.023  89.856  1.00  0.00     0.211 HD
ENDBRANCH  15  16
BRANCH  15  18
HETATM   18  C   LIG     1      93.090  86.926  88.016  1.00  0.00     0.169 C 
BRANCH  18  19
HETATM   19  O   LIG     1      91.926  87.551  87.514  1.00  0.00    -0.380 OA
HETATM   20  H   LIG     1      91.181  87.004  87.711  1.00  0.00     0.211 HD
ENDBRANCH  18  19
ENDBRANCH  15  18
ENDBRANCH   4  15
TORSDOF 9
ENDMDL
MODEL 8
REMARK VINA RESULT:      -0.0      8.260      9.346
REMARK  9 active torsions:
REMARK  status: ('A' for Active; 'I' for Inactive)
REMARK    1  A    between atoms: C_2  and  C_7 
REMARK    2  A    between atoms: C_3  and  O_13 
REMARK    3  A    between atoms: C_4  and  C_15 
REMARK    4  A    between atoms: C_7  and  O_8 
REMARK    5  A    between atoms: C_7  and  C_10 
REMARK    6  A    between atoms: C_10  and  O_11 
REMARK    7  A    between atoms: C_15  and  O_16 
REMARK    8  A    between atoms: C_15  and  C_18 
REMARK    9  A    between atoms: C_18  and  O_19 
ROOT
HETATM    1  O   LIG     1      93.197  86.216  94.697  1.00  0.00    -0.325 OA
HETATM    2  C   LIG     1      92.247  85.172  94.517  1.00  0.00     0.176 C 
HETATM    3  C   LIG     1      91.447  85.442  93.223  1.00  0.00     0.170 C 
HETATM    4  C   LIG     1      90.870  86.882  93.218  1.00  0.00     0.176 C 
HETATM    5  O   LIG     1      91.951  87.764  93.517  1.00  0.00    -0.325 OA
HETATM    6  C   LIG     1      92.619  87.481  94.711  1.00  0.00     0.294 C 
ENDROOT
BRANCH   2   7
HETATM    7  C   LIG     1      92.983  83.812  94.560  1.00  0.00     0.170 C 
BRANCH   7   8
HETATM    8  O   LIG     1      92.059  82.750  94.702  1.00  0.00    -0.380 OA
HETATM    9  H   LIG     1      91.480  82.770  93.955  1.00  0.00     0.211 HD
ENDBRANCH   7   8
BRANCH   7  10
HETATM   10  C   LIG     1      93.850  83.563  93.314  1.00  0.00     0.169 C 
BRANCH  10  11
HETATM   11  O   LIG     1      94.973  84.420  93.325  1.00  0.00    -0.380 OA
HETATM   12  H   LIG     1      95.587  84.121  92.671  1.00  0.00     0.211 HD
ENDBRANCH  10  11
ENDBRANCH   7  10
ENDBRANCH   2   7
BRANCH   3  13
HETATM   13  O   LIG     1      90.433  84.469  93.057  1.00  0.00    -0.380 OA
HETATM   14  H   LIG     1      90.002  84.341  93.889  1.00  0.00     0.211 HD
ENDBRANCH   3  13
BRANCH   4  15
HETATM   15  C   LIG     1      89.649  87.152  94.147  1.00  0.00     0.170 C 
BRANCH  15  16
HETATM   16  O   LIG     1      88.558  86.359  93.721  1.00  0.00    -0.380 OA
HETATM   17  H   LIG     1      87.778  86.697  94.135  1.00  0.00     0.211 HD
ENDBRANCH  15  16
BRANCH  15  18
HETATM   18  C   LIG     1      89.153  88.611  94.075  1.00  0.00     0.169 C 
BRANCH  18  19
HETATM   19  O   LIG     1      89.531  89.189  92.841  1.00  0.00    -0.380 OA
HETATM   20  H   LIG     1      89.347  90.115  92.874  1.00  0.00     0.211 HD
ENDBRANCH  18  19
ENDBRANCH  15  18
ENDBRANCH   4  15
TORSDOF 9
ENDMDL
MODEL 9
REMARK VINA RESULT:      -0.0      8.739     11.142
REMARK  9 active torsions:
REMARK  status: ('A' for Active; 'I' for Inactive)
REMARK    1  A    between atoms: C_2  and  C_7 
REMARK    2  A    between atoms: C_3  and  O_13 
REMARK    3  A    between atoms: C_4  and  C_15 
REMARK    4  A    between atoms: C_7  and  O_8 
REMARK    5  A    between atoms: C_7  and  C_10 
REMARK    6  A    between atoms: C_10  and  O_11 
REMARK    7  A    between atoms: C_15  and  O_16 
REMARK    8  A    between atoms: C_15  and  C_18 
REMARK    9  A    between atoms: C_18  and  O_19 
ROOT
HETATM    1  O   LIG     1      92.348  92.976  83.101  1.00  0.00    -0.325 OA
HETATM    2  C   LIG     1      92.887  91.659  83.086  1.00  0.00     0.176 C 
HETATM    3  C   LIG     1      91.930  90.736  82.298  1.00  0.00     0.170 C 
HETATM    4  C   LIG     1      90.478  90.860  82.830  1.00  0.00     0.176 C 
HETATM    5  O   LIG     1      90.166  92.252  82.865  1.00  0.00    -0.325 OA
HETATM    6  C   LIG     1      91.055  93.028  83.612  1.00  0.00     0.294 C 
ENDROOT
BRANCH   2   7
HETATM    7  C   LIG     1      94.335  91.718  82.544  1.00  0.00     0.170 C 
BRANCH   7   8
HETATM    8  O   LIG     1      95.013  90.504  82.803  1.00  0.00    -0.380 OA
HETATM    9  H   LIG     1      95.878  90.718  83.120  1.00  0.00     0.211 HD
ENDBRANCH   7   8
BRANCH   7  10
HETATM   10  C   LIG     1      94.397  92.018  81.037  1.00  0.00     0.169 C 
BRANCH  10  11
HETATM   11  O   LIG     1      94.016  93.356  80.793  1.00  0.00    -0.380 OA
HETATM   12  H   LIG     1      94.455  93.657  80.012  1.00  0.00     0.211 HD
ENDBRANCH  10  11
ENDBRANCH   7  10
ENDBRANCH   2   7
BRANCH   3  13
HETATM   13  O   LIG     1      92.392  89.399  82.336  1.00  0.00    -0.380 OA
HETATM   14  H   LIG     1      91.728  88.864  82.745  1.00  0.00     0.211 HD
ENDBRANCH   3  13
BRANCH   4  15
HETATM   15  C   LIG     1      90.170  90.178  84.196  1.00  0.00     0.170 C 
BRANCH  15  16
HETATM   16  O   LIG     1      90.358  88.781  84.070  1.00  0.00    -0.380 OA
HETATM   17  H   LIG     1      89.512  88.368  84.165  1.00  0.00     0.211 HD
ENDBRANCH  15  16
BRANCH  15  18
HETATM   18  C   LIG     1      88.704  90.361  84.639  1.00  0.00     0.169 C 
BRANCH  18  19
HETATM   19  O   LIG     1      87.886  90.600  83.512  1.00  0.00    -0.380 OA
HETATM   20  H   LIG     1      87.048  90.187  83.655  1.00  0.00     0.211 HD
ENDBRANCH  18  19
ENDBRANCH  15  18
ENDBRANCH   4  15
TORSDOF 9
ENDMDL
