MODEL 1
REMARK VINA RESULT:      -0.0      0.000      0.000
REMARK  5 active torsions:
REMARK  status: ('A' for Active; 'I' for Inactive)
REMARK    1  A    between atoms: S_1  and  C_4 
REMARK    2  A    between atoms: S_1  and  N_13 
REMARK    3  A    between atoms: C_7  and  N_10 
REMARK    4  A    between atoms: N_13  and  C_15 
REMARK    5  A    between atoms: C_15  and  C_16 
ROOT
HETATM    1  S   LIG     1      89.032  85.642  90.922  1.00  0.00     0.261 S 
HETATM    2  O   LIG     1      89.787  86.776  91.479  1.00  0.00    -0.200 OA
HETATM    3  O   LIG     1      87.634  85.810  90.498  1.00  0.00    -0.200 OA
ENDROOT
BRANCH   1   4
HETATM    4  C   LIG     1      89.105  84.271  92.070  1.00  0.00     0.103 A 
HETATM    5  C   LIG     1      90.353  83.744  92.457  1.00  0.00     0.014 A 
HETATM    6  C   LIG     1      90.402  82.651  93.345  1.00  0.00     0.017 A 
HETATM    7  C   LIG     1      89.207  82.091  93.843  1.00  0.00     0.050 A 
HETATM    8  C   LIG     1      87.962  82.627  93.456  1.00  0.00     0.017 A 
HETATM    9  C   LIG     1      87.908  83.720  92.569  1.00  0.00     0.014 A 
BRANCH   7  10
HETATM   10  N   LIG     1      89.258  81.007  94.716  1.00  0.00    -0.398 N 
HETATM   11  H   LIG     1      88.439  80.445  94.906  1.00  0.00     0.156 HD
HETATM   12  H   LIG     1      90.136  80.666  95.082  1.00  0.00     0.156 HD
ENDBRANCH   7  10
ENDBRANCH   1   4
BRANCH   1  13
HETATM   13  N   LIG     1      89.909  85.036  89.565  1.00  0.00    -0.297 N 
HETATM   14  H   LIG     1      90.667  85.653  89.275  1.00  0.00     0.173 HD
BRANCH  13  15
HETATM   15  C   LIG     1      89.194  84.409  88.449  1.00  0.00     0.138 C 
BRANCH  15  16
HETATM   16  C   LIG     1      89.211  82.876  88.568  1.00  0.00     0.138 C 
HETATM   17  C   LIG     1      87.952  82.308  89.257  1.00  0.00     0.032 C 
HETATM   18  C   LIG     1      88.075  80.793  89.452  1.00  0.00     0.005 C 
HETATM   19  C   LIG     1      89.386  80.469  90.176  1.00  0.00     0.032 C 
HETATM   20  C   LIG     1      90.571  81.123  89.447  1.00  0.00     0.142 C 
HETATM   21  O   LIG     1      90.357  82.528  89.342  1.00  0.00    -0.355 OA
ENDBRANCH  15  16
ENDBRANCH  13  15
ENDBRANCH   1  13
TORSDOF 5
ENDMDL
MODEL 2
REMARK VINA RESULT:      -0.0      3.599      5.620
REMARK  5 active torsions:
REMARK  status: ('A' for Active; 'I' for Inactive)
REMARK    1  A    between atoms: S_1  and  C_4 
REMARK    2  A    between atoms: S_1  and  N_13 
REMARK    3  A    between atoms: C_7  and  N_10 
REMARK    4  A    between atoms: N_13  and  C_15 
REMARK    5  A    between atoms: C_15  and  C_16 
ROOT
HETATM    1  S   LIG     1      86.732  87.728  88.745  1.00  0.00     0.261 S 
HETATM    2  O   LIG     1      85.530  87.486  87.930  1.00  0.00    -0.200 OA
HETATM    3  O   LIG     1      87.936  88.319  88.145  1.00  0.00    -0.200 OA
ENDROOT
BRANCH   1   4
HETATM    4  C   LIG     1      87.204  86.204  89.557  1.00  0.00     0.103 A 
HETATM    5  C   LIG     1      86.292  85.548  90.407  1.00  0.00     0.014 A 
HETATM    6  C   LIG     1      86.679  84.361  91.059  1.00  0.00     0.017 A 
HETATM    7  C   LIG     1      87.971  83.833  90.858  1.00  0.00     0.050 A 
HETATM    8  C   LIG     1      88.876  84.490  90.001  1.00  0.00     0.017 A 
HETATM    9  C   LIG     1      88.494  85.677  89.346  1.00  0.00     0.014 A 
BRANCH   7  10
HETATM   10  N   LIG     1      88.352  82.661  91.508  1.00  0.00    -0.398 N 
HETATM   11  H   LIG     1      89.145  82.118  91.192  1.00  0.00     0.156 HD
HETATM   12  H   LIG     1      87.938  82.388  92.388  1.00  0.00     0.156 HD
ENDBRANCH   7  10
ENDBRANCH   1   4
BRANCH   1  13
HETATM   13  N   LIG     1      86.277  88.730  90.074  1.00  0.00    -0.297 N 
HETATM   14  H   LIG     1      85.342  89.123  89.973  1.00  0.00     0.173 HD
BRANCH  13  15
HETATM   15  C   LIG     1      87.250  89.656  90.662  1.00  0.00     0.138 C 
BRANCH  15  16
HETATM   16  C   LIG     1      87.897  89.058  91.922  1.00  0.00     0.138 C 
HETATM   17  C   LIG     1      89.241  88.354  91.637  1.00  0.00     0.032 C 
HETATM   18  C   LIG     1      89.782  87.679  92.902  1.00  0.00     0.005 C 
HETATM   19  C   LIG     1      88.708  86.763  93.499  1.00  0.00     0.032 C 
HETATM   20  C   LIG     1      87.395  87.539  93.692  1.00  0.00     0.142 C 
HETATM   21  O   LIG     1      86.981  88.103  92.452  1.00  0.00    -0.355 OA
ENDBRANCH  15  16
ENDBRANCH  13  15
ENDBRANCH   1  13
TORSDOF 5
ENDMDL
MODEL 3
REMARK VINA RESULT:      -0.0      7.256      9.329
REMARK  5 active torsions:
REMARK  status: ('A' for Active; 'I' for Inactive)
REMARK    1  A    between atoms: S_1  and  C_4 
REMARK    2  A    between atoms: S_1  and  N_13 
REMARK    3  A    between atoms: C_7  and  N_10 
REMARK    4  A    between atoms: N_13  and  C_15 
REMARK    5  A    between atoms: C_15  and  C_16 
ROOT
HETATM    1  S   LIG     1      86.100  88.458  89.167  1.00  0.00     0.261 S 
HETATM    2  O   LIG     1      87.310  89.051  89.759  1.00  0.00    -0.200 OA
HETATM    3  O   LIG     1      85.687  87.091  89.521  1.00  0.00    -0.200 OA
ENDROOT
BRANCH   1   4
HETATM    4  C   LIG     1      86.208  88.563  87.384  1.00  0.00     0.103 A 
HETATM    5  C   LIG     1      86.361  89.818  86.762  1.00  0.00     0.014 A 
HETATM    6  C   LIG     1      86.424  89.895  85.357  1.00  0.00     0.017 A 
HETATM    7  C   LIG     1      86.337  88.721  84.580  1.00  0.00     0.050 A 
HETATM    8  C   LIG     1      86.191  87.468  85.209  1.00  0.00     0.017 A 
HETATM    9  C   LIG     1      86.128  87.386  86.614  1.00  0.00     0.014 A 
BRANCH   7  10
HETATM   10  N   LIG     1      86.395  88.801  83.190  1.00  0.00    -0.398 N 
HETATM   11  H   LIG     1      85.929  89.543  82.686  1.00  0.00     0.156 HD
HETATM   12  H   LIG     1      87.009  88.204  82.655  1.00  0.00     0.156 HD
ENDBRANCH   7  10
ENDBRANCH   1   4
BRANCH   1  13
HETATM   13  N   LIG     1      84.771  89.500  89.521  1.00  0.00    -0.297 N 
HETATM   14  H   LIG     1      85.002  90.218  90.207  1.00  0.00     0.173 HD
BRANCH  13  15
HETATM   15  C   LIG     1      83.423  88.947  89.672  1.00  0.00     0.138 C 
BRANCH  15  16
HETATM   16  C   LIG     1      82.610  89.099  88.375  1.00  0.00     0.138 C 
HETATM   17  C   LIG     1      82.662  87.845  87.476  1.00  0.00     0.032 C 
HETATM   18  C   LIG     1      81.934  88.095  86.151  1.00  0.00     0.005 C 
HETATM   19  C   LIG     1      82.482  89.364  85.490  1.00  0.00     0.032 C 
HETATM   20  C   LIG     1      82.440  90.539  86.480  1.00  0.00     0.142 C 
HETATM   21  O   LIG     1      83.162  90.202  87.660  1.00  0.00    -0.355 OA
ENDBRANCH  15  16
ENDBRANCH  13  15
ENDBRANCH   1  13
TORSDOF 5
ENDMDL
MODEL 4
REMARK VINA RESULT:       0.0      5.345      7.170
REMARK  5 active torsions:
REMARK  status: ('A' for Active; 'I' for Inactive)
REMARK    1  A    between atoms: S_1  and  C_4 
REMARK    2  A    between atoms: S_1  and  N_13 
REMARK    3  A    between atoms: C_7  and  N_10 
REMARK    4  A    between atoms: N_13  and  C_15 
REMARK    5  A    between atoms: C_15  and  C_16 
ROOT
HETATM    1  S   LIG     1      89.916  87.003  92.819  1.00  0.00     0.261 S 
HETATM    2  O   LIG     1      88.580  86.457  93.108  1.00  0.00    -0.200 OA
HETATM    3  O   LIG     1      90.598  86.684  91.556  1.00  0.00    -0.200 OA
ENDROOT
BRANCH   1   4
HETATM    4  C   LIG     1      91.018  86.594  94.168  1.00  0.00     0.103 A 
HETATM    5  C   LIG     1      90.711  87.010  95.478  1.00  0.00     0.014 A 
HETATM    6  C   LIG     1      91.595  86.702  96.531  1.00  0.00     0.017 A 
HETATM    7  C   LIG     1      92.778  85.980  96.273  1.00  0.00     0.050 A 
HETATM    8  C   LIG     1      93.077  85.562  94.960  1.00  0.00     0.017 A 
HETATM    9  C   LIG     1      92.196  85.867  93.904  1.00  0.00     0.014 A 
BRANCH   7  10
HETATM   10  N   LIG     1      93.653  85.682  97.315  1.00  0.00    -0.398 N 
HETATM   11  H   LIG     1      93.490  84.896  97.930  1.00  0.00     0.156 HD
HETATM   12  H   LIG     1      94.542  86.153  97.407  1.00  0.00     0.156 HD
ENDBRANCH   7  10
ENDBRANCH   1   4
BRANCH   1  13
HETATM   13  N   LIG     1      89.819  88.723  92.927  1.00  0.00    -0.297 N 
HETATM   14  H   LIG     1      88.861  89.064  92.983  1.00  0.00     0.173 HD
BRANCH  13  15
HETATM   15  C   LIG     1      90.701  89.561  92.110  1.00  0.00     0.138 C 
BRANCH  15  16
HETATM   16  C   LIG     1      91.924  90.033  92.914  1.00  0.00     0.138 C 
HETATM   17  C   LIG     1      93.161  89.129  92.724  1.00  0.00     0.032 C 
HETATM   18  C   LIG     1      94.309  89.578  93.634  1.00  0.00     0.005 C 
HETATM   19  C   LIG     1      93.815  89.670  95.082  1.00  0.00     0.032 C 
HETATM   20  C   LIG     1      92.553  90.542  95.159  1.00  0.00     0.142 C 
HETATM   21  O   LIG     1      91.552  90.021  94.290  1.00  0.00    -0.355 OA
ENDBRANCH  15  16
ENDBRANCH  13  15
ENDBRANCH   1  13
TORSDOF 5
ENDMDL
MODEL 5
REMARK VINA RESULT:       0.0      6.536      8.401
REMARK  5 active torsions:
REMARK  status: ('A' for Active; 'I' for Inactive)
REMARK    1  A    between atoms: S_1  and  C_4 
REMARK    2  A    between atoms: S_1  and  N_13 
REMARK    3  A    between atoms: C_7  and  N_10 
REMARK    4  A    between atoms: N_13  and  C_15 
REMARK    5  A    between atoms: C_15  and  C_16 
ROOT
HETATM    1  S   LIG     1      93.723  88.670  89.728  1.00  0.00     0.261 S 
HETATM    2  O   LIG     1      92.843  89.144  90.808  1.00  0.00    -0.200 OA
HETATM    3  O   LIG     1      95.145  89.044  89.703  1.00  0.00    -0.200 OA
ENDROOT
BRANCH   1   4
HETATM    4  C   LIG     1      93.003  89.113  88.151  1.00  0.00     0.103 A 
HETATM    5  C   LIG     1      91.711  88.661  87.816  1.00  0.00     0.014 A 
HETATM    6  C   LIG     1      91.159  88.995  86.564  1.00  0.00     0.017 A 
HETATM    7  C   LIG     1      91.896  89.780  85.654  1.00  0.00     0.050 A 
HETATM    8  C   LIG     1      93.186  90.234  85.997  1.00  0.00     0.017 A 
HETATM    9  C   LIG     1      93.742  89.903  87.248  1.00  0.00     0.014 A 
BRANCH   7  10
HETATM   10  N   LIG     1      91.350  90.105  84.414  1.00  0.00    -0.398 N 
HETATM   11  H   LIG     1      90.384  89.901  84.194  1.00  0.00     0.156 HD
HETATM   12  H   LIG     1      91.856  90.672  83.748  1.00  0.00     0.156 HD
ENDBRANCH   7  10
ENDBRANCH   1   4
BRANCH   1  13
HETATM   13  N   LIG     1      93.648  86.947  89.700  1.00  0.00    -0.297 N 
HETATM   14  H   LIG     1      93.179  86.557  90.516  1.00  0.00     0.173 HD
BRANCH  13  15
HETATM   15  C   LIG     1      94.806  86.168  89.252  1.00  0.00     0.138 C 
BRANCH  15  16
HETATM   16  C   LIG     1      94.658  85.745  87.781  1.00  0.00     0.138 C 
HETATM   17  C   LIG     1      95.351  86.713  86.799  1.00  0.00     0.032 C 
HETATM   18  C   LIG     1      95.074  86.308  85.347  1.00  0.00     0.005 C 
HETATM   19  C   LIG     1      93.564  86.167  85.129  1.00  0.00     0.032 C 
HETATM   20  C   LIG     1      92.959  85.231  86.187  1.00  0.00     0.142 C 
HETATM   21  O   LIG     1      93.262  85.715  87.491  1.00  0.00    -0.355 OA
ENDBRANCH  15  16
ENDBRANCH  13  15
ENDBRANCH   1  13
TORSDOF 5
ENDMDL
MODEL 6
REMARK VINA RESULT:       0.0      9.550     11.337
REMARK  5 active torsions:
REMARK  status: ('A' for Active; 'I' for Inactive)
REMARK    1  A    between atoms: S_1  and  C_4 
REMARK    2  A    between atoms: S_1  and  N_13 
REMARK    3  A    between atoms: C_7  and  N_10 
REMARK    4  A    between atoms: N_13  and  C_15 
REMARK    5  A    between atoms: C_15  and  C_16 
ROOT
HETATM    1  S   LIG     1      84.577  91.694  90.340  1.00  0.00     0.261 S 
HETATM    2  O   LIG     1      84.184  90.363  89.852  1.00  0.00    -0.200 OA
HETATM    3  O   LIG     1      85.430  92.569  89.523  1.00  0.00    -0.200 OA
ENDROOT
BRANCH   1   4
HETATM    4  C   LIG     1      85.334  91.526  91.953  1.00  0.00     0.103 A 
HETATM    5  C   LIG     1      84.616  90.929  93.008  1.00  0.00     0.014 A 
HETATM    6  C   LIG     1      85.211  90.819  94.280  1.00  0.00     0.017 A 
HETATM    7  C   LIG     1      86.519  91.302  94.493  1.00  0.00     0.050 A 
HETATM    8  C   LIG     1      87.234  91.892  93.432  1.00  0.00     0.017 A 
HETATM    9  C   LIG     1      86.644  92.004  92.158  1.00  0.00     0.014 A 
BRANCH   7  10
HETATM   10  N   LIG     1      87.103  91.196  95.754  1.00  0.00    -0.398 N 
HETATM   11  H   LIG     1      87.643  90.383  96.017  1.00  0.00     0.156 HD
HETATM   12  H   LIG     1      87.122  91.979  96.392  1.00  0.00     0.156 HD
ENDBRANCH   7  10
ENDBRANCH   1   4
BRANCH   1  13
HETATM   13  N   LIG     1      83.136  92.574  90.697  1.00  0.00    -0.297 N 
HETATM   14  H   LIG     1      82.295  92.117  90.348  1.00  0.00     0.173 HD
BRANCH  13  15
HETATM   15  C   LIG     1      83.116  94.034  90.566  1.00  0.00     0.138 C 
BRANCH  15  16
HETATM   16  C   LIG     1      83.328  94.718  91.927  1.00  0.00     0.138 C 
HETATM   17  C   LIG     1      84.801  95.098  92.191  1.00  0.00     0.032 C 
HETATM   18  C   LIG     1      84.972  95.668  93.603  1.00  0.00     0.005 C 
HETATM   19  C   LIG     1      84.381  94.696  94.629  1.00  0.00     0.032 C 
HETATM   20  C   LIG     1      82.936  94.336  94.249  1.00  0.00     0.142 C 
HETATM   21  O   LIG     1      82.902  93.800  92.931  1.00  0.00    -0.355 OA
ENDBRANCH  15  16
ENDBRANCH  13  15
ENDBRANCH   1  13
TORSDOF 5
ENDMDL
MODEL 7
REMARK VINA RESULT:       0.0      5.807      7.491
REMARK  5 active torsions:
REMARK  status: ('A' for Active; 'I' for Inactive)
REMARK    1  A    between atoms: S_1  and  C_4 
REMARK    2  A    between atoms: S_1  and  N_13 
REMARK    3  A    between atoms: C_7  and  N_10 
REMARK    4  A    between atoms: N_13  and  C_15 
REMARK    5  A    between atoms: C_15  and  C_16 
ROOT
HETATM    1  S   LIG     1      95.561  84.288  93.854  1.00  0.00     0.261 S 
HETATM    2  O   LIG     1      96.846  83.935  94.477  1.00  0.00    -0.200 OA
HETATM    3  O   LIG     1      94.302  83.721  94.361  1.00  0.00    -0.200 OA
ENDROOT
BRANCH   1   4
HETATM    4  C   LIG     1      95.652  83.958  92.097  1.00  0.00     0.103 A 
HETATM    5  C   LIG     1      96.641  84.585  91.314  1.00  0.00     0.014 A 
HETATM    6  C   LIG     1      96.694  84.337  89.929  1.00  0.00     0.017 A 
HETATM    7  C   LIG     1      95.762  83.463  89.332  1.00  0.00     0.050 A 
HETATM    8  C   LIG     1      94.779  82.833  90.121  1.00  0.00     0.017 A 
HETATM    9  C   LIG     1      94.723  83.078  91.507  1.00  0.00     0.014 A 
BRANCH   7  10
HETATM   10  N   LIG     1      95.813  83.223  87.960  1.00  0.00    -0.398 N 
HETATM   11  H   LIG     1      96.015  82.303  87.594  1.00  0.00     0.156 HD
HETATM   12  H   LIG     1      95.520  83.922  87.293  1.00  0.00     0.156 HD
ENDBRANCH   7  10
ENDBRANCH   1   4
BRANCH   1  13
HETATM   13  N   LIG     1      95.403  86.005  93.901  1.00  0.00    -0.297 N 
HETATM   14  H   LIG     1      96.102  86.452  94.492  1.00  0.00     0.173 HD
BRANCH  13  15
HETATM   15  C   LIG     1      94.074  86.619  93.986  1.00  0.00     0.138 C 
BRANCH  15  16
HETATM   16  C   LIG     1      93.578  87.066  92.600  1.00  0.00     0.138 C 
HETATM   17  C   LIG     1      92.681  86.017  91.909  1.00  0.00     0.032 C 
HETATM   18  C   LIG     1      92.312  86.464  90.491  1.00  0.00     0.005 C 
HETATM   19  C   LIG     1      93.585  86.813  89.712  1.00  0.00     0.032 C 
HETATM   20  C   LIG     1      94.435  87.818  90.504  1.00  0.00     0.142 C 
HETATM   21  O   LIG     1      94.732  87.290  91.793  1.00  0.00    -0.355 OA
ENDBRANCH  15  16
ENDBRANCH  13  15
ENDBRANCH   1  13
TORSDOF 5
ENDMDL
MODEL 8
REMARK VINA RESULT:       0.0      8.400     10.132
REMARK  5 active torsions:
REMARK  status: ('A' for Active; 'I' for Inactive)
REMARK    1  A    between atoms: S_1  and  C_4 
REMARK    2  A    between atoms: S_1  and  N_13 
REMARK    3  A    between atoms: C_7  and  N_10 
REMARK    4  A    between atoms: N_13  and  C_15 
REMARK    5  A    between atoms: C_15  and  C_16 
ROOT
HETATM    1  S   LIG     1      87.588  90.101  89.236  1.00  0.00     0.261 S 
HETATM    2  O   LIG     1      87.822  88.800  89.883  1.00  0.00    -0.200 OA
HETATM    3  O   LIG     1      88.692  90.824  88.589  1.00  0.00    -0.200 OA
ENDROOT
BRANCH   1   4
HETATM    4  C   LIG     1      86.809  91.206  90.409  1.00  0.00     0.103 A 
HETATM    5  C   LIG     1      85.582  90.849  91.004  1.00  0.00     0.014 A 
HETATM    6  C   LIG     1      84.965  91.734  91.910  1.00  0.00     0.017 A 
HETATM    7  C   LIG     1      85.575  92.967  92.220  1.00  0.00     0.050 A 
HETATM    8  C   LIG     1      86.805  93.315  91.626  1.00  0.00     0.017 A 
HETATM    9  C   LIG     1      87.426  92.434  90.721  1.00  0.00     0.014 A 
BRANCH   7  10
HETATM   10  N   LIG     1      84.959  93.842  93.113  1.00  0.00    -0.398 N 
HETATM   11  H   LIG     1      85.450  94.199  93.921  1.00  0.00     0.156 HD
HETATM   12  H   LIG     1      84.058  94.251  92.912  1.00  0.00     0.156 HD
ENDBRANCH   7  10
ENDBRANCH   1   4
BRANCH   1  13
HETATM   13  N   LIG     1      86.352  89.888  88.051  1.00  0.00    -0.297 N 
HETATM   14  H   LIG     1      86.136  88.908  87.874  1.00  0.00     0.173 HD
BRANCH  13  15
HETATM   15  C   LIG     1      86.336  90.725  86.848  1.00  0.00     0.138 C 
BRANCH  15  16
HETATM   16  C   LIG     1      85.356  91.900  86.999  1.00  0.00     0.138 C 
HETATM   17  C   LIG     1      86.035  93.197  87.488  1.00  0.00     0.032 C 
HETATM   18  C   LIG     1      84.997  94.298  87.731  1.00  0.00     0.005 C 
HETATM   19  C   LIG     1      83.898  93.775  88.664  1.00  0.00     0.032 C 
HETATM   20  C   LIG     1      83.325  92.456  88.123  1.00  0.00     0.142 C 
HETATM   21  O   LIG     1      84.373  91.506  87.955  1.00  0.00    -0.355 OA
ENDBRANCH  15  16
ENDBRANCH  13  15
ENDBRANCH   1  13
TORSDOF 5
ENDMDL
MODEL 9
REMARK VINA RESULT:       0.0      6.153      8.257
REMARK  5 active torsions:
REMARK  status: ('A' for Active; 'I' for Inactive)
REMARK    1  A    between atoms: S_1  and  C_4 
REMARK    2  A    between atoms: S_1  and  N_13 
REMARK    3  A    between atoms: C_7  and  N_10 
REMARK    4  A    between atoms: N_13  and  C_15 
REMARK    5  A    between atoms: C_15  and  C_16 
ROOT
HETATM    1  S   LIG     1      92.509  91.704  89.158  1.00  0.00     0.261 S 
HETATM    2  O   LIG     1      92.917  92.970  88.530  1.00  0.00    -0.200 OA
HETATM    3  O   LIG     1      92.775  91.456  90.583  1.00  0.00    -0.200 OA
ENDROOT
BRANCH   1   4
HETATM    4  C   LIG     1      93.186  90.340  88.219  1.00  0.00     0.103 A 
HETATM    5  C   LIG     1      92.875  90.205  86.851  1.00  0.00     0.014 A 
HETATM    6  C   LIG     1      93.394  89.116  86.124  1.00  0.00     0.017 A 
HETATM    7  C   LIG     1      94.223  88.170  86.762  1.00  0.00     0.050 A 
HETATM    8  C   LIG     1      94.535  88.314  88.129  1.00  0.00     0.017 A 
HETATM    9  C   LIG     1      94.019  89.401  88.861  1.00  0.00     0.014 A 
BRANCH   7  10
HETATM   10  N   LIG     1      94.731  87.091  86.041  1.00  0.00    -0.398 N 
HETATM   11  H   LIG     1      95.292  86.378  86.487  1.00  0.00     0.156 HD
HETATM   12  H   LIG     1      94.448  86.915  85.088  1.00  0.00     0.156 HD
ENDBRANCH   7  10
ENDBRANCH   1   4
BRANCH   1  13
HETATM   13  N   LIG     1      90.811  91.515  88.916  1.00  0.00    -0.297 N 
HETATM   14  H   LIG     1      90.364  92.360  88.562  1.00  0.00     0.173 HD
BRANCH  13  15
HETATM   15  C   LIG     1      90.005  90.785  89.898  1.00  0.00     0.138 C 
BRANCH  15  16
HETATM   16  C   LIG     1      89.769  89.331  89.456  1.00  0.00     0.138 C 
HETATM   17  C   LIG     1      90.791  88.342  90.056  1.00  0.00     0.032 C 
HETATM   18  C   LIG     1      90.581  86.932  89.493  1.00  0.00     0.005 C 
HETATM   19  C   LIG     1      90.581  86.983  87.961  1.00  0.00     0.032 C 
HETATM   20  C   LIG     1      89.576  88.033  87.463  1.00  0.00     0.142 C 
HETATM   21  O   LIG     1      89.880  89.302  88.035  1.00  0.00    -0.355 OA
ENDBRANCH  15  16
ENDBRANCH  13  15
ENDBRANCH   1  13
TORSDOF 5
ENDMDL
