MODEL 1
REMARK VINA RESULT:      -0.0      0.000      0.000
REMARK  3 active torsions:
REMARK  status: ('A' for Active; 'I' for Inactive)
REMARK    1  A    between atoms: C_7  and  C_16 
REMARK    2  A    between atoms: C_7  and  C_10 
REMARK    3  A    between atoms: C_16  and  C_17 
ROOT
HETATM    1  O   LIG     1      90.055  92.194  90.451  1.00  0.00    -0.247 OA
HETATM    2  H   LIG     1      88.603  93.564  88.750  1.00  0.00     0.173 HD
HETATM    3  N   LIG     1      89.256  92.869  88.421  1.00  0.00    -0.277 N 
HETATM    4  N   LIG     1      90.788  91.352  88.454  1.00  0.00    -0.319 N 
HETATM    5  H   LIG     1      91.474  90.708  88.819  1.00  0.00     0.166 HD
HETATM    6  O   LIG     1      88.930  93.170  86.185  1.00  0.00    -0.270 OA
HETATM    7  C   LIG     1      90.508  91.480  87.026  1.00  0.00     0.161 A 
HETATM    8  C   LIG     1      89.466  92.601  87.135  1.00  0.00     0.260 A 
HETATM    9  C   LIG     1      90.031  92.141  89.225  1.00  0.00     0.324 A 
ENDROOT
BRANCH   7  10
HETATM   10  C   LIG     1      91.805  91.954  86.308  1.00  0.00     0.060 C 
BRANCH  10  11
HETATM   11  C   LIG     1      93.105  91.322  86.786  1.00  0.00    -0.019 A 
HETATM   12  C   LIG     1      93.421  89.993  86.430  1.00  0.00    -0.004 A 
HETATM   13  C   LIG     1      94.621  89.406  86.878  1.00  0.00    -0.000 A 
HETATM   14  C   LIG     1      95.512  90.146  87.678  1.00  0.00    -0.000 A 
HETATM   15  C   LIG     1      95.206  91.474  88.028  1.00  0.00    -0.000 A 
HETATM   16  C   LIG     1      94.006  92.062  87.580  1.00  0.00    -0.004 A 
ENDBRANCH  10  11
ENDBRANCH   7  10
BRANCH   7  17
HETATM   17  C   LIG     1      89.899  90.189  86.438  1.00  0.00     0.024 A 
HETATM   18  C   LIG     1      89.329  89.201  87.277  1.00  0.00     0.097 A 
HETATM   19  N   LIG     1      88.797  88.045  86.831  1.00  0.00    -0.243 NA
HETATM   20  C   LIG     1      88.813  87.812  85.503  1.00  0.00     0.099 A 
HETATM   21  C   LIG     1      89.361  88.712  84.572  1.00  0.00     0.020 A 
HETATM   22  C   LIG     1      89.913  89.916  85.048  1.00  0.00     0.001 A 
ENDBRANCH   7  17
TORSDOF 3
ENDMDL
MODEL 2
REMARK VINA RESULT:      -0.0      4.865      6.786
REMARK  3 active torsions:
REMARK  status: ('A' for Active; 'I' for Inactive)
REMARK    1  A    between atoms: C_7  and  C_16 
REMARK    2  A    between atoms: C_7  and  C_10 
REMARK    3  A    between atoms: C_16  and  C_17 
ROOT
HETATM    1  O   LIG     1      95.821  91.253  88.047  1.00  0.00    -0.247 OA
HETATM    2  H   LIG     1      97.467  91.335  90.088  1.00  0.00     0.173 HD
HETATM    3  N   LIG     1      96.471  91.411  90.230  1.00  0.00    -0.277 N 
HETATM    4  N   LIG     1      94.365  91.541  89.788  1.00  0.00    -0.319 N 
HETATM    5  H   LIG     1      93.511  91.570  89.250  1.00  0.00     0.166 HD
HETATM    6  O   LIG     1      96.503  91.703  92.491  1.00  0.00    -0.270 OA
HETATM    7  C   LIG     1      94.382  91.633  91.245  1.00  0.00     0.161 A 
HETATM    8  C   LIG     1      95.905  91.583  91.422  1.00  0.00     0.260 A 
HETATM    9  C   LIG     1      95.577  91.384  89.243  1.00  0.00     0.324 A 
ENDROOT
BRANCH   7  10
HETATM   10  C   LIG     1      93.789  93.010  91.662  1.00  0.00     0.060 C 
BRANCH  10  11
HETATM   11  C   LIG     1      92.576  93.483  90.873  1.00  0.00    -0.019 A 
HETATM   12  C   LIG     1      91.312  92.898  91.096  1.00  0.00    -0.004 A 
HETATM   13  C   LIG     1      90.190  93.331  90.362  1.00  0.00    -0.000 A 
HETATM   14  C   LIG     1      90.327  94.356  89.406  1.00  0.00    -0.000 A 
HETATM   15  C   LIG     1      91.584  94.949  89.186  1.00  0.00    -0.000 A 
HETATM   16  C   LIG     1      92.706  94.517  89.921  1.00  0.00    -0.004 A 
ENDBRANCH  10  11
ENDBRANCH   7  10
BRANCH   7  17
HETATM   17  C   LIG     1      93.690  90.423  91.909  1.00  0.00     0.024 A 
HETATM   18  C   LIG     1      93.457  89.226  91.188  1.00  0.00     0.097 A 
HETATM   19  N   LIG     1      92.844  88.140  91.702  1.00  0.00    -0.243 NA
HETATM   20  C   LIG     1      92.420  88.199  92.980  1.00  0.00     0.099 A 
HETATM   21  C   LIG     1      92.584  89.335  93.793  1.00  0.00     0.020 A 
HETATM   22  C   LIG     1      93.226  90.462  93.247  1.00  0.00     0.001 A 
ENDBRANCH   7  17
TORSDOF 3
ENDMDL
MODEL 3
REMARK VINA RESULT:       0.0      2.360      3.042
REMARK  3 active torsions:
REMARK  status: ('A' for Active; 'I' for Inactive)
REMARK    1  A    between atoms: C_7  and  C_16 
REMARK    2  A    between atoms: C_7  and  C_10 
REMARK    3  A    between atoms: C_16  and  C_17 
ROOT
HETATM    1  O   LIG     1      86.509  93.464  88.941  1.00  0.00    -0.247 OA
HETATM    2  H   LIG     1      86.660  93.988  86.375  1.00  0.00     0.173 HD
HETATM    3  N   LIG     1      87.414  93.508  86.844  1.00  0.00    -0.277 N 
HETATM    4  N   LIG     1      88.570  92.613  88.428  1.00  0.00    -0.319 N 
HETATM    5  H   LIG     1      88.824  92.299  89.353  1.00  0.00     0.166 HD
HETATM    6  O   LIG     1      88.824  93.329  85.062  1.00  0.00    -0.270 OA
HETATM    7  C   LIG     1      89.431  92.415  87.265  1.00  0.00     0.161 A 
HETATM    8  C   LIG     1      88.537  93.127  86.242  1.00  0.00     0.260 A 
HETATM    9  C   LIG     1      87.410  93.215  88.144  1.00  0.00     0.324 A 
ENDROOT
BRANCH   7  10
HETATM   10  C   LIG     1      90.768  93.175  87.503  1.00  0.00     0.060 C 
BRANCH  10  11
HETATM   11  C   LIG     1      91.343  93.095  88.911  1.00  0.00    -0.019 A 
HETATM   12  C   LIG     1      91.964  91.909  89.357  1.00  0.00    -0.004 A 
HETATM   13  C   LIG     1      92.490  91.832  90.662  1.00  0.00    -0.000 A 
HETATM   14  C   LIG     1      92.402  92.943  91.523  1.00  0.00    -0.000 A 
HETATM   15  C   LIG     1      91.792  94.130  91.079  1.00  0.00    -0.000 A 
HETATM   16  C   LIG     1      91.266  94.208  89.775  1.00  0.00    -0.004 A 
ENDBRANCH  10  11
ENDBRANCH   7  10
BRANCH   7  17
HETATM   17  C   LIG     1      89.609  90.920  86.924  1.00  0.00     0.024 A 
HETATM   18  C   LIG     1      88.721  89.942  87.434  1.00  0.00     0.097 A 
HETATM   19  N   LIG     1      88.829  88.620  87.190  1.00  0.00    -0.243 NA
HETATM   20  C   LIG     1      89.852  88.202  86.417  1.00  0.00     0.099 A 
HETATM   21  C   LIG     1      90.804  89.075  85.863  1.00  0.00     0.020 A 
HETATM   22  C   LIG     1      90.681  90.453  86.124  1.00  0.00     0.001 A 
ENDBRANCH   7  17
TORSDOF 3
ENDMDL
MODEL 4
REMARK VINA RESULT:       0.0      4.109      6.719
REMARK  3 active torsions:
REMARK  status: ('A' for Active; 'I' for Inactive)
REMARK    1  A    between atoms: C_7  and  C_16 
REMARK    2  A    between atoms: C_7  and  C_10 
REMARK    3  A    between atoms: C_16  and  C_17 
ROOT
HETATM    1  O   LIG     1      88.491  94.337  84.469  1.00  0.00    -0.247 OA
HETATM    2  H   LIG     1      90.131  92.429  85.212  1.00  0.00     0.173 HD
HETATM    3  N   LIG     1      89.195  92.475  85.588  1.00  0.00    -0.277 N 
HETATM    4  N   LIG     1      87.197  93.189  85.967  1.00  0.00    -0.319 N 
HETATM    5  H   LIG     1      86.374  93.771  85.913  1.00  0.00     0.166 HD
HETATM    6  O   LIG     1      89.343  90.695  87.005  1.00  0.00    -0.270 OA
HETATM    7  C   LIG     1      87.262  91.993  86.802  1.00  0.00     0.161 A 
HETATM    8  C   LIG     1      88.718  91.621  86.489  1.00  0.00     0.260 A 
HETATM    9  C   LIG     1      88.311  93.417  85.262  1.00  0.00     0.324 A 
ENDROOT
BRANCH   7  10
HETATM   10  C   LIG     1      87.073  92.416  88.288  1.00  0.00     0.060 C 
BRANCH  10  11
HETATM   11  C   LIG     1      86.021  93.485  88.552  1.00  0.00    -0.019 A 
HETATM   12  C   LIG     1      84.649  93.159  88.493  1.00  0.00    -0.004 A 
HETATM   13  C   LIG     1      83.675  94.149  88.731  1.00  0.00    -0.000 A 
HETATM   14  C   LIG     1      84.069  95.467  89.034  1.00  0.00    -0.000 A 
HETATM   15  C   LIG     1      85.436  95.794  89.102  1.00  0.00    -0.000 A 
HETATM   16  C   LIG     1      86.411  94.804  88.865  1.00  0.00    -0.004 A 
ENDBRANCH  10  11
ENDBRANCH   7  10
BRANCH   7  17
HETATM   17  C   LIG     1      86.280  90.902  86.328  1.00  0.00     0.024 A 
HETATM   18  C   LIG     1      85.718  90.937  85.028  1.00  0.00     0.097 A 
HETATM   19  N   LIG     1      84.841  90.026  84.558  1.00  0.00    -0.243 NA
HETATM   20  C   LIG     1      84.471  89.022  85.379  1.00  0.00     0.099 A 
HETATM   21  C   LIG     1      84.951  88.887  86.693  1.00  0.00     0.020 A 
HETATM   22  C   LIG     1      85.866  89.843  87.174  1.00  0.00     0.001 A 
ENDBRANCH   7  17
TORSDOF 3
ENDMDL
MODEL 5
REMARK VINA RESULT:       0.0      4.197      6.045
REMARK  3 active torsions:
REMARK  status: ('A' for Active; 'I' for Inactive)
REMARK    1  A    between atoms: C_7  and  C_16 
REMARK    2  A    between atoms: C_7  and  C_10 
REMARK    3  A    between atoms: C_16  and  C_17 
ROOT
HETATM    1  O   LIG     1      90.311  92.762  88.634  1.00  0.00    -0.247 OA
HETATM    2  H   LIG     1      88.278  91.260  87.934  1.00  0.00     0.173 HD
HETATM    3  N   LIG     1      88.705  91.152  88.842  1.00  0.00    -0.277 N 
HETATM    4  N   LIG     1      90.065  91.446  90.489  1.00  0.00    -0.319 N 
HETATM    5  H   LIG     1      90.830  91.824  91.029  1.00  0.00     0.166 HD
HETATM    6  O   LIG     1      87.424  89.419  89.584  1.00  0.00    -0.270 OA
HETATM    7  C   LIG     1      89.182  90.400  90.998  1.00  0.00     0.161 A 
HETATM    8  C   LIG     1      88.317  90.251  89.740  1.00  0.00     0.260 A 
HETATM    9  C   LIG     1      89.743  91.874  89.263  1.00  0.00     0.324 A 
ENDROOT
BRANCH   7  10
HETATM   10  C   LIG     1      90.032  89.127  91.279  1.00  0.00     0.060 C 
BRANCH  10  11
HETATM   11  C   LIG     1      91.398  89.360  91.910  1.00  0.00    -0.019 A 
HETATM   12  C   LIG     1      91.499  89.700  93.276  1.00  0.00    -0.004 A 
HETATM   13  C   LIG     1      92.763  89.921  93.859  1.00  0.00    -0.000 A 
HETATM   14  C   LIG     1      93.930  89.797  93.081  1.00  0.00    -0.000 A 
HETATM   15  C   LIG     1      93.834  89.449  91.721  1.00  0.00    -0.000 A 
HETATM   16  C   LIG     1      92.571  89.227  91.137  1.00  0.00    -0.004 A 
ENDBRANCH  10  11
ENDBRANCH   7  10
BRANCH   7  17
HETATM   17  C   LIG     1      88.352  90.882  92.208  1.00  0.00     0.024 A 
HETATM   18  C   LIG     1      88.198  92.262  92.486  1.00  0.00     0.097 A 
HETATM   19  N   LIG     1      87.501  92.749  93.535  1.00  0.00    -0.243 NA
HETATM   20  C   LIG     1      86.922  91.867  94.373  1.00  0.00     0.099 A 
HETATM   21  C   LIG     1      87.014  90.473  94.208  1.00  0.00     0.020 A 
HETATM   22  C   LIG     1      87.742  89.976  93.110  1.00  0.00     0.001 A 
ENDBRANCH   7  17
TORSDOF 3
ENDMDL
MODEL 6
REMARK VINA RESULT:       0.0      6.756      8.646
REMARK  3 active torsions:
REMARK  status: ('A' for Active; 'I' for Inactive)
REMARK    1  A    between atoms: C_7  and  C_16 
REMARK    2  A    between atoms: C_7  and  C_10 
REMARK    3  A    between atoms: C_16  and  C_17 
ROOT
HETATM    1  O   LIG     1      91.472  80.309  86.415  1.00  0.00    -0.247 OA
HETATM    2  H   LIG     1      91.247  79.342  88.843  1.00  0.00     0.173 HD
HETATM    3  N   LIG     1      91.100  80.325  88.668  1.00  0.00    -0.277 N 
HETATM    4  N   LIG     1      90.977  82.198  87.608  1.00  0.00    -0.319 N 
HETATM    5  H   LIG     1      91.009  82.856  86.843  1.00  0.00     0.166 HD
HETATM    6  O   LIG     1      90.721  80.970  90.822  1.00  0.00    -0.270 OA
HETATM    7  C   LIG     1      90.642  82.592  88.973  1.00  0.00     0.161 A 
HETATM    8  C   LIG     1      90.814  81.211  89.619  1.00  0.00     0.260 A 
HETATM    9  C   LIG     1      91.203  80.887  87.465  1.00  0.00     0.324 A 
ENDROOT
BRANCH   7  10
HETATM   10  C   LIG     1      91.710  83.609  89.472  1.00  0.00     0.060 C 
BRANCH  10  11
HETATM   11  C   LIG     1      92.169  84.649  88.459  1.00  0.00    -0.019 A 
HETATM   12  C   LIG     1      91.329  85.732  88.124  1.00  0.00    -0.004 A 
HETATM   13  C   LIG     1      91.751  86.691  87.182  1.00  0.00    -0.000 A 
HETATM   14  C   LIG     1      93.016  86.575  86.576  1.00  0.00    -0.000 A 
HETATM   15  C   LIG     1      93.861  85.501  86.914  1.00  0.00    -0.000 A 
HETATM   16  C   LIG     1      93.441  84.542  87.856  1.00  0.00    -0.004 A 
ENDBRANCH  10  11
ENDBRANCH   7  10
BRANCH   7  17
HETATM   17  C   LIG     1      89.189  83.099  89.089  1.00  0.00     0.024 A 
HETATM   18  C   LIG     1      88.233  82.816  88.082  1.00  0.00     0.097 A 
HETATM   19  N   LIG     1      86.953  83.243  88.113  1.00  0.00    -0.243 NA
HETATM   20  C   LIG     1      86.561  83.990  89.164  1.00  0.00     0.099 A 
HETATM   21  C   LIG     1      87.421  84.346  90.218  1.00  0.00     0.020 A 
HETATM   22  C   LIG     1      88.753  83.895  90.177  1.00  0.00     0.001 A 
ENDBRANCH   7  17
TORSDOF 3
ENDMDL
MODEL 7
REMARK VINA RESULT:       0.0      8.045     10.454
REMARK  3 active torsions:
REMARK  status: ('A' for Active; 'I' for Inactive)
REMARK    1  A    between atoms: C_7  and  C_16 
REMARK    2  A    between atoms: C_7  and  C_10 
REMARK    3  A    between atoms: C_16  and  C_17 
ROOT
HETATM    1  O   LIG     1      81.721  89.480  86.876  1.00  0.00    -0.247 OA
HETATM    2  H   LIG     1      84.192  88.659  86.553  1.00  0.00     0.173 HD
HETATM    3  N   LIG     1      83.743  88.588  87.454  1.00  0.00    -0.277 N 
HETATM    4  N   LIG     1      82.242  88.776  88.990  1.00  0.00    -0.319 N 
HETATM    5  H   LIG     1      81.364  89.007  89.432  1.00  0.00     0.166 HD
HETATM    6  O   LIG     1      85.509  87.732  88.614  1.00  0.00    -0.270 OA
HETATM    7  C   LIG     1      83.343  88.140  89.708  1.00  0.00     0.161 A 
HETATM    8  C   LIG     1      84.341  88.113  88.543  1.00  0.00     0.260 A 
HETATM    9  C   LIG     1      82.495  88.989  87.694  1.00  0.00     0.324 A 
ENDROOT
BRANCH   7  10
HETATM   10  C   LIG     1      83.804  89.091  90.851  1.00  0.00     0.060 C 
BRANCH  10  11
HETATM   11  C   LIG     1      82.697  89.808  91.613  1.00  0.00    -0.019 A 
HETATM   12  C   LIG     1      81.909  89.103  92.548  1.00  0.00    -0.004 A 
HETATM   13  C   LIG     1      80.881  89.764  93.249  1.00  0.00    -0.000 A 
HETATM   14  C   LIG     1      80.640  91.133  93.022  1.00  0.00    -0.000 A 
HETATM   15  C   LIG     1      81.430  91.842  92.097  1.00  0.00    -0.000 A 
HETATM   16  C   LIG     1      82.458  91.181  91.396  1.00  0.00    -0.004 A 
ENDBRANCH  10  11
ENDBRANCH   7  10
BRANCH   7  17
HETATM   17  C   LIG     1      82.980  86.717  90.182  1.00  0.00     0.024 A 
HETATM   18  C   LIG     1      81.883  86.017  89.622  1.00  0.00     0.097 A 
HETATM   19  N   LIG     1      81.502  84.780  90.002  1.00  0.00    -0.243 NA
HETATM   20  C   LIG     1      82.205  84.173  90.980  1.00  0.00     0.099 A 
HETATM   21  C   LIG     1      83.305  84.771  91.619  1.00  0.00     0.020 A 
HETATM   22  C   LIG     1      83.695  86.062  91.215  1.00  0.00     0.001 A 
ENDBRANCH   7  17
TORSDOF 3
ENDMDL
MODEL 8
REMARK VINA RESULT:       0.0      5.983      7.314
REMARK  3 active torsions:
REMARK  status: ('A' for Active; 'I' for Inactive)
REMARK    1  A    between atoms: C_7  and  C_16 
REMARK    2  A    between atoms: C_7  and  C_10 
REMARK    3  A    between atoms: C_16  and  C_17 
ROOT
HETATM    1  O   LIG     1      88.895  90.393  91.331  1.00  0.00    -0.247 OA
HETATM    2  H   LIG     1      87.659  90.674  93.628  1.00  0.00     0.173 HD
HETATM    3  N   LIG     1      87.327  91.157  92.806  1.00  0.00    -0.277 N 
HETATM    4  N   LIG     1      87.229  91.857  90.770  1.00  0.00    -0.319 N 
HETATM    5  H   LIG     1      87.474  91.979  89.798  1.00  0.00     0.166 HD
HETATM    6  O   LIG     1      85.608  92.290  93.784  1.00  0.00    -0.270 OA
HETATM    7  C   LIG     1      86.071  92.507  91.377  1.00  0.00     0.161 A 
HETATM    8  C   LIG     1      86.283  91.982  92.803  1.00  0.00     0.260 A 
HETATM    9  C   LIG     1      87.908  91.068  91.610  1.00  0.00     0.324 A 
ENDROOT
BRANCH   7  10
HETATM   10  C   LIG     1      86.264  94.049  91.287  1.00  0.00     0.060 C 
BRANCH  10  11
HETATM   11  C   LIG     1      86.850  94.576  89.984  1.00  0.00    -0.019 A 
HETATM   12  C   LIG     1      86.054  94.631  88.821  1.00  0.00    -0.004 A 
HETATM   13  C   LIG     1      86.597  95.113  87.613  1.00  0.00    -0.000 A 
HETATM   14  C   LIG     1      87.936  95.547  87.565  1.00  0.00    -0.000 A 
HETATM   15  C   LIG     1      88.730  95.502  88.726  1.00  0.00    -0.000 A 
HETATM   16  C   LIG     1      88.188  95.021  89.934  1.00  0.00    -0.004 A 
ENDBRANCH  10  11
ENDBRANCH   7  10
BRANCH   7  17
HETATM   17  C   LIG     1      84.743  92.004  90.775  1.00  0.00     0.024 A 
HETATM   18  C   LIG     1      84.684  90.794  90.040  1.00  0.00     0.097 A 
HETATM   19  N   LIG     1      83.561  90.307  89.474  1.00  0.00    -0.243 NA
HETATM   20  C   LIG     1      82.424  91.018  89.610  1.00  0.00     0.099 A 
HETATM   21  C   LIG     1      82.359  92.238  90.306  1.00  0.00     0.020 A 
HETATM   22  C   LIG     1      83.536  92.737  90.894  1.00  0.00     0.001 A 
ENDBRANCH   7  17
TORSDOF 3
ENDMDL
MODEL 9
REMARK VINA RESULT:       0.0      7.802      9.794
REMARK  3 active torsions:
REMARK  status: ('A' for Active; 'I' for Inactive)
REMARK    1  A    between atoms: C_7  and  C_16 
REMARK    2  A    between atoms: C_7  and  C_10 
REMARK    3  A    between atoms: C_16  and  C_17 
ROOT
HETATM    1  O   LIG     1      93.981  84.920  90.063  1.00  0.00    -0.247 OA
HETATM    2  H   LIG     1      94.432  86.599  88.098  1.00  0.00     0.173 HD
HETATM    3  N   LIG     1      95.122  85.905  88.348  1.00  0.00    -0.277 N 
HETATM    4  N   LIG     1      96.079  84.289  89.404  1.00  0.00    -0.319 N 
HETATM    5  H   LIG     1      96.221  83.554  90.083  1.00  0.00     0.166 HD
HETATM    6  O   LIG     1      96.728  86.513  86.848  1.00  0.00    -0.270 OA
HETATM    7  C   LIG     1      97.067  84.618  88.381  1.00  0.00     0.161 A 
HETATM    8  C   LIG     1      96.304  85.789  87.748  1.00  0.00     0.260 A 
HETATM    9  C   LIG     1      94.965  85.026  89.336  1.00  0.00     0.324 A 
ENDROOT
BRANCH   7  10
HETATM   10  C   LIG     1      98.375  85.084  89.085  1.00  0.00     0.060 C 
BRANCH  10  11
HETATM   11  C   LIG     1      98.781  84.302  90.327  1.00  0.00    -0.019 A 
HETATM   12  C   LIG     1      99.336  83.011  90.202  1.00  0.00    -0.004 A 
HETATM   13  C   LIG     1      99.706  82.285  91.352  1.00  0.00    -0.000 A 
HETATM   14  C   LIG     1      99.529  82.849  92.629  1.00  0.00    -0.000 A 
HETATM   15  C   LIG     1      98.985  84.141  92.758  1.00  0.00    -0.000 A 
HETATM   16  C   LIG     1      98.615  84.868  91.610  1.00  0.00    -0.004 A 
ENDBRANCH  10  11
ENDBRANCH   7  10
BRANCH   7  17
HETATM   17  C   LIG     1      97.270  83.462  87.379  1.00  0.00     0.024 A 
HETATM   18  C   LIG     1      96.319  82.418  87.264  1.00  0.00     0.097 A 
HETATM   19  N   LIG     1      96.443  81.371  86.422  1.00  0.00    -0.243 NA
HETATM   20  C   LIG     1      97.545  81.310  85.647  1.00  0.00     0.099 A 
HETATM   21  C   LIG     1      98.563  82.279  85.680  1.00  0.00     0.020 A 
HETATM   22  C   LIG     1      98.423  83.368  86.561  1.00  0.00     0.001 A 
ENDBRANCH   7  17
TORSDOF 3
ENDMDL
