MODEL 1
REMARK VINA RESULT:      -0.0      0.000      0.000
REMARK  3 active torsions:
REMARK  status: ('A' for Active; 'I' for Inactive)
REMARK    1  A    between atoms: C_7  and  C_16 
REMARK    2  A    between atoms: C_7  and  C_10 
REMARK    3  A    between atoms: C_16  and  C_17 
ROOT
HETATM    1  O   LIG     1      95.403  89.574  95.794  1.00  0.00    -0.247 OA
HETATM    2  H   LIG     1      97.150  90.825  94.290  1.00  0.00     0.173 HD
HETATM    3  N   LIG     1      96.275  91.266  94.533  1.00  0.00    -0.277 N 
HETATM    4  N   LIG     1      94.310  91.540  95.375  1.00  0.00    -0.319 N 
HETATM    5  H   LIG     1      93.461  91.337  95.883  1.00  0.00     0.166 HD
HETATM    6  O   LIG     1      96.562  93.196  93.353  1.00  0.00    -0.270 OA
HETATM    7  C   LIG     1      94.537  92.813  94.697  1.00  0.00     0.161 A 
HETATM    8  C   LIG     1      95.913  92.474  94.109  1.00  0.00     0.260 A 
HETATM    9  C   LIG     1      95.339  90.690  95.285  1.00  0.00     0.324 A 
ENDROOT
BRANCH   7  10
HETATM   10  C   LIG     1      93.454  92.986  93.591  1.00  0.00     0.060 C 
BRANCH  10  11
HETATM   11  C   LIG     1      92.043  92.549  93.962  1.00  0.00    -0.019 A 
HETATM   12  C   LIG     1      91.258  93.345  94.823  1.00  0.00    -0.004 A 
HETATM   13  C   LIG     1      89.955  92.938  95.170  1.00  0.00    -0.000 A 
HETATM   14  C   LIG     1      89.429  91.738  94.654  1.00  0.00    -0.000 A 
HETATM   15  C   LIG     1      90.206  90.946  93.788  1.00  0.00    -0.000 A 
HETATM   16  C   LIG     1      91.509  91.352  93.439  1.00  0.00    -0.004 A 
ENDBRANCH  10  11
ENDBRANCH   7  10
BRANCH   7  17
HETATM   17  C   LIG     1      94.615  93.992  95.690  1.00  0.00     0.024 A 
HETATM   18  C   LIG     1      94.843  93.771  97.071  1.00  0.00     0.097 A 
HETATM   19  N   LIG     1      94.906  94.754  97.993  1.00  0.00    -0.243 NA
HETATM   20  C   LIG     1      94.734  96.025  97.577  1.00  0.00     0.099 A 
HETATM   21  C   LIG     1      94.490  96.367  96.235  1.00  0.00     0.020 A 
HETATM   22  C   LIG     1      94.428  95.335  95.280  1.00  0.00     0.001 A 
ENDBRANCH   7  17
TORSDOF 3
ENDMDL
MODEL 2
REMARK VINA RESULT:      -0.0      9.969     12.786
REMARK  3 active torsions:
REMARK  status: ('A' for Active; 'I' for Inactive)
REMARK    1  A    between atoms: C_7  and  C_16 
REMARK    2  A    between atoms: C_7  and  C_10 
REMARK    3  A    between atoms: C_16  and  C_17 
ROOT
HETATM    1  O   LIG     1      85.852  90.290  94.585  1.00  0.00    -0.247 OA
HETATM    2  H   LIG     1      84.795  88.443  96.119  1.00  0.00     0.173 HD
HETATM    3  N   LIG     1      84.281  88.811  95.332  1.00  0.00    -0.277 N 
HETATM    4  N   LIG     1      83.798  90.018  93.613  1.00  0.00    -0.319 N 
HETATM    5  H   LIG     1      83.899  90.709  92.883  1.00  0.00     0.166 HD
HETATM    6  O   LIG     1      82.357  87.626  95.638  1.00  0.00    -0.270 OA
HETATM    7  C   LIG     1      82.604  89.190  93.755  1.00  0.00     0.161 A 
HETATM    8  C   LIG     1      83.045  88.434  95.015  1.00  0.00     0.260 A 
HETATM    9  C   LIG     1      84.750  89.752  94.515  1.00  0.00     0.324 A 
ENDROOT
BRANCH   7  10
HETATM   10  C   LIG     1      81.385  90.119  94.026  1.00  0.00     0.060 C 
BRANCH  10  11
HETATM   11  C   LIG     1      81.337  91.412  93.223  1.00  0.00    -0.019 A 
HETATM   12  C   LIG     1      80.984  91.385  91.857  1.00  0.00    -0.004 A 
HETATM   13  C   LIG     1      80.945  92.581  91.112  1.00  0.00    -0.000 A 
HETATM   14  C   LIG     1      81.253  93.807  91.731  1.00  0.00    -0.000 A 
HETATM   15  C   LIG     1      81.597  93.840  93.095  1.00  0.00    -0.000 A 
HETATM   16  C   LIG     1      81.636  92.645  93.841  1.00  0.00    -0.004 A 
ENDBRANCH  10  11
ENDBRANCH   7  10
BRANCH   7  17
HETATM   17  C   LIG     1      82.414  88.238  92.555  1.00  0.00     0.024 A 
HETATM   18  C   LIG     1      83.484  87.951  91.672  1.00  0.00     0.097 A 
HETATM   19  N   LIG     1      83.382  87.143  90.596  1.00  0.00    -0.243 NA
HETATM   20  C   LIG     1      82.184  86.578  90.341  1.00  0.00     0.099 A 
HETATM   21  C   LIG     1      81.046  86.796  91.138  1.00  0.00     0.020 A 
HETATM   22  C   LIG     1      81.165  87.640  92.258  1.00  0.00     0.001 A 
ENDBRANCH   7  17
TORSDOF 3
ENDMDL
MODEL 3
REMARK VINA RESULT:      -0.0      5.037      7.083
REMARK  3 active torsions:
REMARK  status: ('A' for Active; 'I' for Inactive)
REMARK    1  A    between atoms: C_7  and  C_16 
REMARK    2  A    between atoms: C_7  and  C_10 
REMARK    3  A    between atoms: C_16  and  C_17 
ROOT
HETATM    1  O   LIG     1      94.443  94.508  91.548  1.00  0.00    -0.247 OA
HETATM    2  H   LIG     1      93.356  92.171  92.039  1.00  0.00     0.173 HD
HETATM    3  N   LIG     1      92.776  92.986  91.898  1.00  0.00    -0.277 N 
HETATM    4  N   LIG     1      92.217  95.038  91.554  1.00  0.00    -0.319 N 
HETATM    5  H   LIG     1      92.311  96.029  91.381  1.00  0.00     0.166 HD
HETATM    6  O   LIG     1      90.755  91.991  92.245  1.00  0.00    -0.270 OA
HETATM    7  C   LIG     1      90.919  94.381  91.682  1.00  0.00     0.161 A 
HETATM    8  C   LIG     1      91.448  92.970  91.971  1.00  0.00     0.260 A 
HETATM    9  C   LIG     1      93.257  94.203  91.652  1.00  0.00     0.324 A 
ENDROOT
BRANCH   7  10
HETATM   10  C   LIG     1      90.175  94.989  92.906  1.00  0.00     0.060 C 
BRANCH  10  11
HETATM   11  C   LIG     1      90.297  96.496  93.083  1.00  0.00    -0.019 A 
HETATM   12  C   LIG     1      89.577  97.370  92.241  1.00  0.00    -0.004 A 
HETATM   13  C   LIG     1      89.694  98.765  92.400  1.00  0.00    -0.000 A 
HETATM   14  C   LIG     1      90.527  99.292  93.406  1.00  0.00    -0.000 A 
HETATM   15  C   LIG     1      91.240  98.424  94.254  1.00  0.00    -0.000 A 
HETATM   16  C   LIG     1      91.123  97.029  94.096  1.00  0.00    -0.004 A 
ENDBRANCH  10  11
ENDBRANCH   7  10
BRANCH   7  17
HETATM   17  C   LIG     1      90.113  94.430  90.367  1.00  0.00     0.024 A 
HETATM   18  C   LIG     1      90.744  94.714  89.131  1.00  0.00     0.097 A 
HETATM   19  N   LIG     1      90.097  94.788  87.950  1.00  0.00    -0.243 NA
HETATM   20  C   LIG     1      88.763  94.587  87.946  1.00  0.00     0.099 A 
HETATM   21  C   LIG     1      88.025  94.309  89.110  1.00  0.00     0.020 A 
HETATM   22  C   LIG     1      88.710  94.232  90.337  1.00  0.00     0.001 A 
ENDBRANCH   7  17
TORSDOF 3
ENDMDL
MODEL 4
REMARK VINA RESULT:       0.0      8.671      9.907
REMARK  3 active torsions:
REMARK  status: ('A' for Active; 'I' for Inactive)
REMARK    1  A    between atoms: C_7  and  C_16 
REMARK    2  A    between atoms: C_7  and  C_10 
REMARK    3  A    between atoms: C_16  and  C_17 
ROOT
HETATM    1  O   LIG     1      90.956  83.691  88.564  1.00  0.00    -0.247 OA
HETATM    2  H   LIG     1      92.589  85.697  88.130  1.00  0.00     0.173 HD
HETATM    3  N   LIG     1      92.490  85.309  89.056  1.00  0.00    -0.277 N 
HETATM    4  N   LIG     1      91.775  84.068  90.667  1.00  0.00    -0.319 N 
HETATM    5  H   LIG     1      91.247  83.356  91.150  1.00  0.00     0.166 HD
HETATM    6  O   LIG     1      93.894  86.739  90.143  1.00  0.00    -0.270 OA
HETATM    7  C   LIG     1      92.746  84.924  91.343  1.00  0.00     0.161 A 
HETATM    8  C   LIG     1      93.131  85.774  90.125  1.00  0.00     0.260 A 
HETATM    9  C   LIG     1      91.676  84.297  89.353  1.00  0.00     0.324 A 
ENDROOT
BRANCH   7  10
HETATM   10  C   LIG     1      92.003  85.757  92.427  1.00  0.00     0.060 C 
BRANCH  10  11
HETATM   11  C   LIG     1      90.937  85.019  93.226  1.00  0.00    -0.019 A 
HETATM   12  C   LIG     1      91.313  84.096  94.225  1.00  0.00    -0.004 A 
HETATM   13  C   LIG     1      90.327  83.408  94.960  1.00  0.00    -0.000 A 
HETATM   14  C   LIG     1      88.963  83.644  94.704  1.00  0.00    -0.000 A 
HETATM   15  C   LIG     1      88.584  84.571  93.714  1.00  0.00    -0.000 A 
HETATM   16  C   LIG     1      89.569  85.259  92.979  1.00  0.00    -0.004 A 
ENDBRANCH  10  11
ENDBRANCH   7  10
BRANCH   7  17
HETATM   17  C   LIG     1      93.949  84.120  91.882  1.00  0.00     0.024 A 
HETATM   18  C   LIG     1      94.229  82.815  91.407  1.00  0.00     0.097 A 
HETATM   19  N   LIG     1      95.251  82.054  91.848  1.00  0.00    -0.243 NA
HETATM   20  C   LIG     1      96.054  82.563  92.804  1.00  0.00     0.099 A 
HETATM   21  C   LIG     1      95.870  83.841  93.361  1.00  0.00     0.020 A 
HETATM   22  C   LIG     1      94.800  84.628  92.893  1.00  0.00     0.001 A 
ENDBRANCH   7  17
TORSDOF 3
ENDMDL
MODEL 5
REMARK VINA RESULT:       0.0      5.512      7.938
REMARK  3 active torsions:
REMARK  status: ('A' for Active; 'I' for Inactive)
REMARK    1  A    between atoms: C_7  and  C_16 
REMARK    2  A    between atoms: C_7  and  C_10 
REMARK    3  A    between atoms: C_16  and  C_17 
ROOT
HETATM    1  O   LIG     1      91.543  90.108  90.958  1.00  0.00    -0.247 OA
HETATM    2  H   LIG     1      91.423  91.941  92.831  1.00  0.00     0.173 HD
HETATM    3  N   LIG     1      90.610  91.386  92.605  1.00  0.00    -0.277 N 
HETATM    4  N   LIG     1      89.356  89.941  91.612  1.00  0.00    -0.319 N 
HETATM    5  H   LIG     1      89.075  89.216  90.968  1.00  0.00     0.166 HD
HETATM    6  O   LIG     1      89.149  92.376  94.048  1.00  0.00    -0.270 OA
HETATM    7  C   LIG     1      88.448  90.512  92.603  1.00  0.00     0.161 A 
HETATM    8  C   LIG     1      89.425  91.538  93.190  1.00  0.00     0.260 A 
HETATM    9  C   LIG     1      90.595  90.445  91.663  1.00  0.00     0.324 A 
ENDROOT
BRANCH   7  10
HETATM   10  C   LIG     1      87.263  91.192  91.856  1.00  0.00     0.060 C 
BRANCH  10  11
HETATM   11  C   LIG     1      86.717  90.444  90.647  1.00  0.00    -0.019 A 
HETATM   12  C   LIG     1      85.915  89.297  90.826  1.00  0.00    -0.004 A 
HETATM   13  C   LIG     1      85.414  88.602  89.708  1.00  0.00    -0.000 A 
HETATM   14  C   LIG     1      85.707  89.054  88.407  1.00  0.00    -0.000 A 
HETATM   15  C   LIG     1      86.499  90.204  88.224  1.00  0.00    -0.000 A 
HETATM   16  C   LIG     1      87.000  90.900  89.342  1.00  0.00    -0.004 A 
ENDBRANCH  10  11
ENDBRANCH   7  10
BRANCH   7  17
HETATM   17  C   LIG     1      88.013  89.471  93.656  1.00  0.00     0.024 A 
HETATM   18  C   LIG     1      88.736  88.266  93.837  1.00  0.00     0.097 A 
HETATM   19  N   LIG     1      88.400  87.308  94.726  1.00  0.00    -0.243 NA
HETATM   20  C   LIG     1      87.304  87.507  95.486  1.00  0.00     0.099 A 
HETATM   21  C   LIG     1      86.500  88.656  95.390  1.00  0.00     0.020 A 
HETATM   22  C   LIG     1      86.860  89.649  94.460  1.00  0.00     0.001 A 
ENDBRANCH   7  17
TORSDOF 3
ENDMDL
MODEL 6
REMARK VINA RESULT:       0.0      9.953     11.988
REMARK  3 active torsions:
REMARK  status: ('A' for Active; 'I' for Inactive)
REMARK    1  A    between atoms: C_7  and  C_16 
REMARK    2  A    between atoms: C_7  and  C_10 
REMARK    3  A    between atoms: C_16  and  C_17 
ROOT
HETATM    1  O   LIG     1      90.436  84.790  90.500  1.00  0.00    -0.247 OA
HETATM    2  H   LIG     1      92.926  85.473  90.960  1.00  0.00     0.173 HD
HETATM    3  N   LIG     1      92.608  85.307  90.017  1.00  0.00    -0.277 N 
HETATM    4  N   LIG     1      91.303  84.786  88.382  1.00  0.00    -0.319 N 
HETATM    5  H   LIG     1      90.467  84.502  87.892  1.00  0.00     0.166 HD
HETATM    6  O   LIG     1      94.598  85.634  88.954  1.00  0.00    -0.270 OA
HETATM    7  C   LIG     1      92.555  85.089  87.695  1.00  0.00     0.161 A 
HETATM    8  C   LIG     1      93.393  85.385  88.946  1.00  0.00     0.260 A 
HETATM    9  C   LIG     1      91.361  84.951  89.708  1.00  0.00     0.324 A 
ENDROOT
BRANCH   7  10
HETATM   10  C   LIG     1      93.039  83.806  86.957  1.00  0.00     0.060 C 
BRANCH  10  11
HETATM   11  C   LIG     1      91.959  82.983  86.267  1.00  0.00    -0.019 A 
HETATM   12  C   LIG     1      91.387  83.435  85.059  1.00  0.00    -0.004 A 
HETATM   13  C   LIG     1      90.384  82.677  84.423  1.00  0.00    -0.000 A 
HETATM   14  C   LIG     1      89.953  81.462  84.989  1.00  0.00    -0.000 A 
HETATM   15  C   LIG     1      90.527  81.003  86.189  1.00  0.00    -0.000 A 
HETATM   16  C   LIG     1      91.531  81.760  86.826  1.00  0.00    -0.004 A 
ENDBRANCH  10  11
ENDBRANCH   7  10
BRANCH   7  17
HETATM   17  C   LIG     1      92.431  86.329  86.785  1.00  0.00     0.024 A 
HETATM   18  C   LIG     1      91.365  87.248  86.942  1.00  0.00     0.097 A 
HETATM   19  N   LIG     1      91.188  88.341  86.170  1.00  0.00    -0.243 NA
HETATM   20  C   LIG     1      92.078  88.569  85.184  1.00  0.00     0.099 A 
HETATM   21  C   LIG     1      93.170  87.723  84.923  1.00  0.00     0.020 A 
HETATM   22  C   LIG     1      93.346  86.586  85.734  1.00  0.00     0.001 A 
ENDBRANCH   7  17
TORSDOF 3
ENDMDL
MODEL 7
REMARK VINA RESULT:       0.0      8.525     11.239
REMARK  3 active torsions:
REMARK  status: ('A' for Active; 'I' for Inactive)
REMARK    1  A    between atoms: C_7  and  C_16 
REMARK    2  A    between atoms: C_7  and  C_10 
REMARK    3  A    between atoms: C_16  and  C_17 
ROOT
HETATM    1  O   LIG     1      85.856  90.644  90.491  1.00  0.00    -0.247 OA
HETATM    2  H   LIG     1      83.766  89.961  91.921  1.00  0.00     0.173 HD
HETATM    3  N   LIG     1      83.991  90.934  91.776  1.00  0.00    -0.277 N 
HETATM    4  N   LIG     1      85.048  92.692  91.114  1.00  0.00    -0.319 N 
HETATM    5  H   LIG     1      85.752  93.260  90.664  1.00  0.00     0.166 HD
HETATM    6  O   LIG     1      82.320  91.831  93.041  1.00  0.00    -0.270 OA
HETATM    7  C   LIG     1      83.922  93.265  91.845  1.00  0.00     0.161 A 
HETATM    8  C   LIG     1      83.295  91.940  92.299  1.00  0.00     0.260 A 
HETATM    9  C   LIG     1      85.039  91.355  91.069  1.00  0.00     0.324 A 
ENDROOT
BRANCH   7  10
HETATM   10  C   LIG     1      84.477  94.090  93.043  1.00  0.00     0.060 C 
BRANCH  10  11
HETATM   11  C   LIG     1      85.720  94.923  92.763  1.00  0.00    -0.019 A 
HETATM   12  C   LIG     1      85.620  96.117  92.017  1.00  0.00    -0.004 A 
HETATM   13  C   LIG     1      86.771  96.886  91.752  1.00  0.00    -0.000 A 
HETATM   14  C   LIG     1      88.025  96.467  92.237  1.00  0.00    -0.000 A 
HETATM   15  C   LIG     1      88.128  95.282  92.989  1.00  0.00    -0.000 A 
HETATM   16  C   LIG     1      86.978  94.514  93.255  1.00  0.00    -0.004 A 
ENDBRANCH  10  11
ENDBRANCH   7  10
BRANCH   7  17
HETATM   17  C   LIG     1      82.974  94.058  90.921  1.00  0.00     0.024 A 
HETATM   18  C   LIG     1      83.006  93.881  89.516  1.00  0.00     0.097 A 
HETATM   19  N   LIG     1      82.218  94.554  88.651  1.00  0.00    -0.243 NA
HETATM   20  C   LIG     1      81.351  95.455  89.155  1.00  0.00     0.099 A 
HETATM   21  C   LIG     1      81.236  95.726  90.530  1.00  0.00     0.020 A 
HETATM   22  C   LIG     1      82.062  95.018  91.423  1.00  0.00     0.001 A 
ENDBRANCH   7  17
TORSDOF 3
ENDMDL
MODEL 8
REMARK VINA RESULT:       0.0      7.110      8.237
REMARK  3 active torsions:
REMARK  status: ('A' for Active; 'I' for Inactive)
REMARK    1  A    between atoms: C_7  and  C_16 
REMARK    2  A    between atoms: C_7  and  C_10 
REMARK    3  A    between atoms: C_16  and  C_17 
ROOT
HETATM    1  O   LIG     1      88.803  90.119  89.585  1.00  0.00    -0.247 OA
HETATM    2  H   LIG     1      91.307  89.878  90.329  1.00  0.00     0.173 HD
HETATM    3  N   LIG     1      91.019  90.650  89.746  1.00  0.00    -0.277 N 
HETATM    4  N   LIG     1      89.756  91.926  88.554  1.00  0.00    -0.319 N 
HETATM    5  H   LIG     1      88.926  92.277  88.097  1.00  0.00     0.166 HD
HETATM    6  O   LIG     1      93.066  91.613  89.473  1.00  0.00    -0.270 OA
HETATM    7  C   LIG     1      91.050  92.594  88.458  1.00  0.00     0.161 A 
HETATM    8  C   LIG     1      91.851  91.579  89.285  1.00  0.00     0.260 A 
HETATM    9  C   LIG     1      89.768  90.832  89.325  1.00  0.00     0.324 A 
ENDROOT
BRANCH   7  10
HETATM   10  C   LIG     1      91.491  92.609  86.965  1.00  0.00     0.060 C 
BRANCH  10  11
HETATM   11  C   LIG     1      90.397  92.898  85.947  1.00  0.00    -0.019 A 
HETATM   12  C   LIG     1      89.902  94.210  85.790  1.00  0.00    -0.004 A 
HETATM   13  C   LIG     1      88.885  94.476  84.852  1.00  0.00    -0.000 A 
HETATM   14  C   LIG     1      88.363  93.433  84.063  1.00  0.00    -0.000 A 
HETATM   15  C   LIG     1      88.860  92.125  84.210  1.00  0.00    -0.000 A 
HETATM   16  C   LIG     1      89.877  91.857  85.147  1.00  0.00    -0.004 A 
ENDBRANCH  10  11
ENDBRANCH   7  10
BRANCH   7  17
HETATM   17  C   LIG     1      91.034  93.986  89.123  1.00  0.00     0.024 A 
HETATM   18  C   LIG     1      90.015  94.348  90.039  1.00  0.00     0.097 A 
HETATM   19  N   LIG     1      89.932  95.552  90.641  1.00  0.00    -0.243 NA
HETATM   20  C   LIG     1      90.873  96.472  90.349  1.00  0.00     0.099 A 
HETATM   21  C   LIG     1      91.926  96.235  89.448  1.00  0.00     0.020 A 
HETATM   22  C   LIG     1      92.004  94.975  88.826  1.00  0.00     0.001 A 
ENDBRANCH   7  17
TORSDOF 3
ENDMDL
MODEL 9
REMARK VINA RESULT:       0.0      4.166      6.763
REMARK  3 active torsions:
REMARK  status: ('A' for Active; 'I' for Inactive)
REMARK    1  A    between atoms: C_7  and  C_16 
REMARK    2  A    between atoms: C_7  and  C_10 
REMARK    3  A    between atoms: C_16  and  C_17 
ROOT
HETATM    1  O   LIG     1      93.876  86.771  95.786  1.00  0.00    -0.247 OA
HETATM    2  H   LIG     1      92.302  85.821  93.916  1.00  0.00     0.173 HD
HETATM    3  N   LIG     1      92.938  86.578  93.713  1.00  0.00    -0.277 N 
HETATM    4  N   LIG     1      94.428  88.106  94.012  1.00  0.00    -0.319 N 
HETATM    5  H   LIG     1      95.109  88.685  94.482  1.00  0.00     0.166 HD
HETATM    6  O   LIG     1      92.337  86.915  91.540  1.00  0.00    -0.270 OA
HETATM    7  C   LIG     1      94.109  88.258  92.595  1.00  0.00     0.161 A 
HETATM    8  C   LIG     1      93.025  87.174  92.527  1.00  0.00     0.260 A 
HETATM    9  C   LIG     1      93.761  87.115  94.613  1.00  0.00     0.324 A 
ENDROOT
BRANCH   7  10
HETATM   10  C   LIG     1      93.527  89.683  92.368  1.00  0.00     0.060 C 
BRANCH  10  11
HETATM   11  C   LIG     1      94.204  90.813  93.131  1.00  0.00    -0.019 A 
HETATM   12  C   LIG     1      95.468  91.288  92.721  1.00  0.00    -0.004 A 
HETATM   13  C   LIG     1      96.098  92.330  93.430  1.00  0.00    -0.000 A 
HETATM   14  C   LIG     1      95.465  92.904  94.549  1.00  0.00    -0.000 A 
HETATM   15  C   LIG     1      94.200  92.439  94.957  1.00  0.00    -0.000 A 
HETATM   16  C   LIG     1      93.569  91.398  94.248  1.00  0.00    -0.004 A 
ENDBRANCH  10  11
ENDBRANCH   7  10
BRANCH   7  17
HETATM   17  C   LIG     1      95.313  87.918  91.692  1.00  0.00     0.024 A 
HETATM   18  C   LIG     1      96.414  87.177  92.187  1.00  0.00     0.097 A 
HETATM   19  N   LIG     1      97.504  86.862  91.456  1.00  0.00    -0.243 NA
HETATM   20  C   LIG     1      97.551  87.284  90.177  1.00  0.00     0.099 A 
HETATM   21  C   LIG     1      96.526  88.036  89.577  1.00  0.00     0.020 A 
HETATM   22  C   LIG     1      95.393  88.358  90.347  1.00  0.00     0.001 A 
ENDBRANCH   7  17
TORSDOF 3
ENDMDL
