MODEL 1
REMARK VINA RESULT:      -0.0      0.000      0.000
REMARK  6 active torsions:
REMARK  status: ('A' for Active; 'I' for Inactive)
REMARK    1  A    between atoms: C_1  and  C_11 
REMARK    2  A    between atoms: C_1  and  C_20 
REMARK    3  A    between atoms: C_1  and  C_2 
REMARK    4  A    between atoms: C_5  and  N_8 
REMARK    5  A    between atoms: C_14  and  N_17 
REMARK    6  A    between atoms: C_23  and  N_26 
ROOT
HETATM    1  C   LIG     1      92.531  89.774  88.171  1.00  0.00     0.067 C 
ENDROOT
BRANCH   1   2
HETATM    2  C   LIG     1      92.377  88.458  87.410  1.00  0.00    -0.014 A 
HETATM    3  C   LIG     1      93.272  87.400  87.666  1.00  0.00    -0.002 A 
HETATM    4  C   LIG     1      93.155  86.178  86.975  1.00  0.00     0.017 A 
HETATM    5  C   LIG     1      92.141  85.979  86.006  1.00  0.00     0.056 A 
HETATM    6  C   LIG     1      91.248  87.051  85.755  1.00  0.00     0.017 A 
HETATM    7  C   LIG     1      91.364  88.272  86.446  1.00  0.00    -0.002 A 
BRANCH   5   8
HETATM    8  N   LIG     1      92.024  84.751  85.312  1.00  0.00    -0.344 N 
HETATM    9  C   LIG     1      93.146  83.820  85.270  1.00  0.00     0.126 C 
HETATM   10  C   LIG     1      90.779  84.406  84.634  1.00  0.00     0.126 C 
ENDBRANCH   5   8
ENDBRANCH   1   2
BRANCH   1  11
HETATM   11  C   LIG     1      92.104  91.001  87.365  1.00  0.00    -0.014 A 
HETATM   12  C   LIG     1      90.847  91.614  87.557  1.00  0.00    -0.002 A 
HETATM   13  C   LIG     1      90.481  92.746  86.804  1.00  0.00     0.017 A 
HETATM   14  C   LIG     1      91.360  93.302  85.840  1.00  0.00     0.056 A 
HETATM   15  C   LIG     1      92.620  92.679  85.660  1.00  0.00     0.017 A 
HETATM   16  C   LIG     1      92.986  91.547  86.411  1.00  0.00    -0.002 A 
BRANCH  14  17
HETATM   17  N   LIG     1      90.992  94.440  85.084  1.00  0.00    -0.344 N 
HETATM   18  C   LIG     1      91.911  94.999  84.100  1.00  0.00     0.126 C 
HETATM   19  C   LIG     1      89.687  95.063  85.281  1.00  0.00     0.126 C 
ENDBRANCH  14  17
ENDBRANCH   1  11
BRANCH   1  20
HETATM   20  C   LIG     1      91.946  89.737  89.583  1.00  0.00    -0.014 A 
HETATM   21  C   LIG     1      92.542  90.511  90.600  1.00  0.00    -0.002 A 
HETATM   22  C   LIG     1      92.027  90.491  91.911  1.00  0.00     0.023 A 
HETATM   23  C   LIG     1      90.903  89.695  92.231  1.00  0.00     0.127 A 
HETATM   24  C   LIG     1      90.310  88.918  91.210  1.00  0.00     0.023 A 
HETATM   25  C   LIG     1      90.825  88.937  89.900  1.00  0.00    -0.002 A 
BRANCH  23  26
HETATM   26  N   LIG     1      90.363  89.673  93.605  1.00  0.00    -0.114 N 
HETATM   27  O   LIG     1      89.564  88.790  93.902  1.00  0.00    -0.532 OA
HETATM   28  O   LIG     1      90.738  90.538  94.390  1.00  0.00    -0.532 OA
ENDBRANCH  23  26
ENDBRANCH   1  20
TORSDOF 6
ENDMDL
MODEL 2
REMARK VINA RESULT:      -0.0      4.235      6.557
REMARK  6 active torsions:
REMARK  status: ('A' for Active; 'I' for Inactive)
REMARK    1  A    between atoms: C_1  and  C_11 
REMARK    2  A    between atoms: C_1  and  C_20 
REMARK    3  A    between atoms: C_1  and  C_2 
REMARK    4  A    between atoms: C_5  and  N_8 
REMARK    5  A    between atoms: C_14  and  N_17 
REMARK    6  A    between atoms: C_23  and  N_26 
ROOT
HETATM    1  C   LIG     1      95.168  90.584  89.606  1.00  0.00     0.067 C 
ENDROOT
BRANCH   1   2
HETATM    2  C   LIG     1      95.444  90.973  88.153  1.00  0.00    -0.014 A 
HETATM    3  C   LIG     1      95.528  89.968  87.170  1.00  0.00    -0.002 A 
HETATM    4  C   LIG     1      95.786  90.299  85.826  1.00  0.00     0.017 A 
HETATM    5  C   LIG     1      95.969  91.646  85.425  1.00  0.00     0.056 A 
HETATM    6  C   LIG     1      95.885  92.649  86.424  1.00  0.00     0.017 A 
HETATM    7  C   LIG     1      95.626  92.318  87.768  1.00  0.00    -0.002 A 
BRANCH   5   8
HETATM    8  N   LIG     1      96.228  91.979  84.074  1.00  0.00    -0.344 N 
HETATM    9  C   LIG     1      96.743  90.970  83.155  1.00  0.00     0.126 C 
HETATM   10  C   LIG     1      95.980  93.332  83.590  1.00  0.00     0.126 C 
ENDBRANCH   5   8
ENDBRANCH   1   2
BRANCH   1  11
HETATM   11  C   LIG     1      95.821  91.518  90.625  1.00  0.00    -0.014 A 
HETATM   12  C   LIG     1      95.087  92.531  91.279  1.00  0.00    -0.002 A 
HETATM   13  C   LIG     1      95.713  93.374  92.218  1.00  0.00     0.017 A 
HETATM   14  C   LIG     1      97.088  93.230  92.532  1.00  0.00     0.056 A 
HETATM   15  C   LIG     1      97.812  92.207  91.870  1.00  0.00     0.017 A 
HETATM   16  C   LIG     1      97.188  91.364  90.931  1.00  0.00    -0.002 A 
BRANCH  14  17
HETATM   17  N   LIG     1      97.716  94.078  93.475  1.00  0.00    -0.344 N 
HETATM   18  C   LIG     1      99.130  93.911  93.788  1.00  0.00     0.126 C 
HETATM   19  C   LIG     1      96.953  95.128  94.141  1.00  0.00     0.126 C 
ENDBRANCH  14  17
ENDBRANCH   1  11
BRANCH   1  20
HETATM   20  C   LIG     1      93.694  90.301  89.894  1.00  0.00    -0.014 A 
HETATM   21  C   LIG     1      93.351  89.342  90.870  1.00  0.00    -0.002 A 
HETATM   22  C   LIG     1      92.001  89.057  91.152  1.00  0.00     0.023 A 
HETATM   23  C   LIG     1      90.964  89.726  90.461  1.00  0.00     0.127 A 
HETATM   24  C   LIG     1      91.311  90.684  89.481  1.00  0.00     0.023 A 
HETATM   25  C   LIG     1      92.660  90.969  89.199  1.00  0.00    -0.002 A 
BRANCH  23  26
HETATM   26  N   LIG     1      89.549  89.427  90.755  1.00  0.00    -0.114 N 
HETATM   27  O   LIG     1      88.688  90.152  90.266  1.00  0.00    -0.532 OA
HETATM   28  O   LIG     1      89.295  88.467  91.474  1.00  0.00    -0.532 OA
ENDBRANCH  23  26
ENDBRANCH   1  20
TORSDOF 6
ENDMDL
MODEL 3
REMARK VINA RESULT:      -0.0      5.707     10.093
REMARK  6 active torsions:
REMARK  status: ('A' for Active; 'I' for Inactive)
REMARK    1  A    between atoms: C_1  and  C_11 
REMARK    2  A    between atoms: C_1  and  C_20 
REMARK    3  A    between atoms: C_1  and  C_2 
REMARK    4  A    between atoms: C_5  and  N_8 
REMARK    5  A    between atoms: C_14  and  N_17 
REMARK    6  A    between atoms: C_23  and  N_26 
ROOT
HETATM    1  C   LIG     1      89.026  85.241  92.611  1.00  0.00     0.067 C 
ENDROOT
BRANCH   1   2
HETATM    2  C   LIG     1      90.009  86.353  92.245  1.00  0.00    -0.014 A 
HETATM    3  C   LIG     1      90.355  86.556  90.894  1.00  0.00    -0.002 A 
HETATM    4  C   LIG     1      91.262  87.570  90.531  1.00  0.00     0.017 A 
HETATM    5  C   LIG     1      91.851  88.410  91.507  1.00  0.00     0.056 A 
HETATM    6  C   LIG     1      91.497  88.196  92.863  1.00  0.00     0.017 A 
HETATM    7  C   LIG     1      90.590  87.183  93.228  1.00  0.00    -0.002 A 
BRANCH   5   8
HETATM    8  N   LIG     1      92.762  89.430  91.142  1.00  0.00    -0.344 N 
HETATM    9  C   LIG     1      93.124  89.625  89.742  1.00  0.00     0.126 C 
HETATM   10  C   LIG     1      93.346  90.295  92.161  1.00  0.00     0.126 C 
ENDBRANCH   5   8
ENDBRANCH   1   2
BRANCH   1  11
HETATM   11  C   LIG     1      89.291  84.616  93.981  1.00  0.00    -0.014 A 
HETATM   12  C   LIG     1      88.535  84.975  95.118  1.00  0.00    -0.002 A 
HETATM   13  C   LIG     1      88.797  84.379  96.367  1.00  0.00     0.017 A 
HETATM   14  C   LIG     1      89.818  83.408  96.517  1.00  0.00     0.056 A 
HETATM   15  C   LIG     1      90.567  83.054  95.367  1.00  0.00     0.017 A 
HETATM   16  C   LIG     1      90.306  83.649  94.118  1.00  0.00    -0.002 A 
BRANCH  14  17
HETATM   17  N   LIG     1      90.080  82.810  97.773  1.00  0.00    -0.344 N 
HETATM   18  C   LIG     1      91.133  81.810  97.907  1.00  0.00     0.126 C 
HETATM   19  C   LIG     1      89.301  83.191  98.946  1.00  0.00     0.126 C 
ENDBRANCH  14  17
ENDBRANCH   1  11
BRANCH   1  20
HETATM   20  C   LIG     1      87.562  85.620  92.384  1.00  0.00    -0.014 A 
HETATM   21  C   LIG     1      86.638  84.620  92.016  1.00  0.00    -0.002 A 
HETATM   22  C   LIG     1      85.285  84.941  91.796  1.00  0.00     0.023 A 
HETATM   23  C   LIG     1      84.828  86.272  91.939  1.00  0.00     0.127 A 
HETATM   24  C   LIG     1      85.757  87.272  92.305  1.00  0.00     0.023 A 
HETATM   25  C   LIG     1      87.110  86.951  92.526  1.00  0.00    -0.002 A 
BRANCH  23  26
HETATM   26  N   LIG     1      83.409  86.610  91.708  1.00  0.00    -0.114 N 
HETATM   27  O   LIG     1      83.072  87.787  91.785  1.00  0.00    -0.532 OA
HETATM   28  O   LIG     1      82.630  85.699  91.447  1.00  0.00    -0.532 OA
ENDBRANCH  23  26
ENDBRANCH   1  20
TORSDOF 6
ENDMDL
MODEL 4
REMARK VINA RESULT:      -0.0      5.383      8.199
REMARK  6 active torsions:
REMARK  status: ('A' for Active; 'I' for Inactive)
REMARK    1  A    between atoms: C_1  and  C_11 
REMARK    2  A    between atoms: C_1  and  C_20 
REMARK    3  A    between atoms: C_1  and  C_2 
REMARK    4  A    between atoms: C_5  and  N_8 
REMARK    5  A    between atoms: C_14  and  N_17 
REMARK    6  A    between atoms: C_23  and  N_26 
ROOT
HETATM    1  C   LIG     1      89.159  83.736  85.342  1.00  0.00     0.067 C 
ENDROOT
BRANCH   1   2
HETATM    2  C   LIG     1      87.888  84.255  84.670  1.00  0.00    -0.014 A 
HETATM    3  C   LIG     1      86.631  83.835  85.147  1.00  0.00    -0.002 A 
HETATM    4  C   LIG     1      85.445  84.295  84.542  1.00  0.00     0.017 A 
HETATM    5  C   LIG     1      85.481  85.185  83.441  1.00  0.00     0.056 A 
HETATM    6  C   LIG     1      86.752  85.598  82.967  1.00  0.00     0.017 A 
HETATM    7  C   LIG     1      87.938  85.140  83.572  1.00  0.00    -0.002 A 
BRANCH   5   8
HETATM    8  N   LIG     1      84.289  85.647  82.833  1.00  0.00    -0.344 N 
HETATM    9  C   LIG     1      82.991  85.204  83.331  1.00  0.00     0.126 C 
HETATM   10  C   LIG     1      84.348  86.569  81.705  1.00  0.00     0.126 C 
ENDBRANCH   5   8
ENDBRANCH   1   2
BRANCH   1  11
HETATM   11  C   LIG     1      90.344  83.593  84.386  1.00  0.00    -0.014 A 
HETATM   12  C   LIG     1      91.369  84.562  84.325  1.00  0.00    -0.002 A 
HETATM   13  C   LIG     1      92.451  84.402  83.439  1.00  0.00     0.017 A 
HETATM   14  C   LIG     1      92.543  83.272  82.589  1.00  0.00     0.056 A 
HETATM   15  C   LIG     1      91.509  82.305  82.662  1.00  0.00     0.017 A 
HETATM   16  C   LIG     1      90.426  82.464  83.547  1.00  0.00    -0.002 A 
BRANCH  14  17
HETATM   17  N   LIG     1      93.631  83.112  81.698  1.00  0.00    -0.344 N 
HETATM   18  C   LIG     1      93.711  81.939  80.835  1.00  0.00     0.126 C 
HETATM   19  C   LIG     1      94.682  84.122  81.633  1.00  0.00     0.126 C 
ENDBRANCH  14  17
ENDBRANCH   1  11
BRANCH   1  20
HETATM   20  C   LIG     1      89.506  84.466  86.639  1.00  0.00    -0.014 A 
HETATM   21  C   LIG     1      90.154  83.764  87.677  1.00  0.00    -0.002 A 
HETATM   22  C   LIG     1      90.481  84.410  88.885  1.00  0.00     0.023 A 
HETATM   23  C   LIG     1      90.164  85.774  89.080  1.00  0.00     0.127 A 
HETATM   24  C   LIG     1      89.512  86.474  88.040  1.00  0.00     0.023 A 
HETATM   25  C   LIG     1      89.186  85.829  86.833  1.00  0.00    -0.002 A 
BRANCH  23  26
HETATM   26  N   LIG     1      90.506  86.452  90.347  1.00  0.00    -0.114 N 
HETATM   27  O   LIG     1      91.119  85.818  91.199  1.00  0.00    -0.532 OA
HETATM   28  O   LIG     1      90.161  87.621  90.491  1.00  0.00    -0.532 OA
ENDBRANCH  23  26
ENDBRANCH   1  20
TORSDOF 6
ENDMDL
MODEL 5
REMARK VINA RESULT:      -0.0      4.112      7.069
REMARK  6 active torsions:
REMARK  status: ('A' for Active; 'I' for Inactive)
REMARK    1  A    between atoms: C_1  and  C_11 
REMARK    2  A    between atoms: C_1  and  C_20 
REMARK    3  A    between atoms: C_1  and  C_2 
REMARK    4  A    between atoms: C_5  and  N_8 
REMARK    5  A    between atoms: C_14  and  N_17 
REMARK    6  A    between atoms: C_23  and  N_26 
ROOT
HETATM    1  C   LIG     1      90.350  93.297  91.488  1.00  0.00     0.067 C 
ENDROOT
BRANCH   1   2
HETATM    2  C   LIG     1      90.140  92.763  90.071  1.00  0.00    -0.014 A 
HETATM    3  C   LIG     1      90.878  93.315  89.005  1.00  0.00    -0.002 A 
HETATM    4  C   LIG     1      90.701  92.845  87.690  1.00  0.00     0.017 A 
HETATM    5  C   LIG     1      89.777  91.810  87.400  1.00  0.00     0.056 A 
HETATM    6  C   LIG     1      89.037  91.265  88.480  1.00  0.00     0.017 A 
HETATM    7  C   LIG     1      89.215  91.733  89.795  1.00  0.00    -0.002 A 
BRANCH   5   8
HETATM    8  N   LIG     1      89.599  91.338  86.078  1.00  0.00    -0.344 N 
HETATM    9  C   LIG     1      89.024  90.018  85.841  1.00  0.00     0.126 C 
HETATM   10  C   LIG     1      89.986  92.166  84.942  1.00  0.00     0.126 C 
ENDBRANCH   5   8
ENDBRANCH   1   2
BRANCH   1  11
HETATM   11  C   LIG     1      89.095  93.232  92.359  1.00  0.00    -0.014 A 
HETATM   12  C   LIG     1      88.902  92.203  93.306  1.00  0.00    -0.002 A 
HETATM   13  C   LIG     1      87.739  92.170  94.098  1.00  0.00     0.017 A 
HETATM   14  C   LIG     1      86.736  93.164  93.972  1.00  0.00     0.056 A 
HETATM   15  C   LIG     1      86.944  94.193  93.019  1.00  0.00     0.017 A 
HETATM   16  C   LIG     1      88.105  94.226  92.226  1.00  0.00    -0.002 A 
BRANCH  14  17
HETATM   17  N   LIG     1      85.567  93.130  94.769  1.00  0.00    -0.344 N 
HETATM   18  C   LIG     1      84.558  94.176  94.642  1.00  0.00     0.126 C 
HETATM   19  C   LIG     1      85.360  92.047  95.724  1.00  0.00     0.126 C 
ENDBRANCH  14  17
ENDBRANCH   1  11
BRANCH   1  20
HETATM   20  C   LIG     1      91.598  92.740  92.172  1.00  0.00    -0.014 A 
HETATM   21  C   LIG     1      92.298  93.545  93.095  1.00  0.00    -0.002 A 
HETATM   22  C   LIG     1      93.454  93.060  93.736  1.00  0.00     0.023 A 
HETATM   23  C   LIG     1      93.935  91.758  93.466  1.00  0.00     0.127 A 
HETATM   24  C   LIG     1      93.233  90.955  92.538  1.00  0.00     0.023 A 
HETATM   25  C   LIG     1      92.077  91.440  91.898  1.00  0.00    -0.002 A 
BRANCH  23  26
HETATM   26  N   LIG     1      95.148  91.249  94.137  1.00  0.00    -0.114 N 
HETATM   27  O   LIG     1      95.563  90.138  93.823  1.00  0.00    -0.532 OA
HETATM   28  O   LIG     1      95.687  91.959  94.979  1.00  0.00    -0.532 OA
ENDBRANCH  23  26
ENDBRANCH   1  20
TORSDOF 6
ENDMDL
MODEL 6
REMARK VINA RESULT:      -0.0      5.991      9.717
REMARK  6 active torsions:
REMARK  status: ('A' for Active; 'I' for Inactive)
REMARK    1  A    between atoms: C_1  and  C_11 
REMARK    2  A    between atoms: C_1  and  C_20 
REMARK    3  A    between atoms: C_1  and  C_2 
REMARK    4  A    between atoms: C_5  and  N_8 
REMARK    5  A    between atoms: C_14  and  N_17 
REMARK    6  A    between atoms: C_23  and  N_26 
ROOT
HETATM    1  C   LIG     1      87.922  90.490  92.885  1.00  0.00     0.067 C 
ENDROOT
BRANCH   1   2
HETATM    2  C   LIG     1      88.288  91.691  92.013  1.00  0.00    -0.014 A 
HETATM    3  C   LIG     1      88.937  91.481  90.780  1.00  0.00    -0.002 A 
HETATM    4  C   LIG     1      89.289  92.570  89.960  1.00  0.00     0.017 A 
HETATM    5  C   LIG     1      89.005  93.902  90.349  1.00  0.00     0.056 A 
HETATM    6  C   LIG     1      88.354  94.102  91.593  1.00  0.00     0.017 A 
HETATM    7  C   LIG     1      88.001  93.014  92.413  1.00  0.00    -0.002 A 
BRANCH   5   8
HETATM    8  N   LIG     1      89.359  94.997  89.525  1.00  0.00    -0.344 N 
HETATM    9  C   LIG     1      90.052  94.771  88.262  1.00  0.00     0.126 C 
HETATM   10  C   LIG     1      89.032  96.359  89.931  1.00  0.00     0.126 C 
ENDBRANCH   5   8
ENDBRANCH   1   2
BRANCH   1  11
HETATM   11  C   LIG     1      87.959  90.788  94.384  1.00  0.00    -0.014 A 
HETATM   12  C   LIG     1      86.781  91.047  95.118  1.00  0.00    -0.002 A 
HETATM   13  C   LIG     1      86.843  91.314  96.499  1.00  0.00     0.017 A 
HETATM   14  C   LIG     1      88.082  91.327  97.189  1.00  0.00     0.056 A 
HETATM   15  C   LIG     1      89.256  91.062  96.441  1.00  0.00     0.017 A 
HETATM   16  C   LIG     1      89.195  90.796  95.060  1.00  0.00    -0.002 A 
BRANCH  14  17
HETATM   17  N   LIG     1      88.144  91.594  98.577  1.00  0.00    -0.344 N 
HETATM   18  C   LIG     1      87.020  92.229  99.256  1.00  0.00     0.126 C 
HETATM   19  C   LIG     1      89.332  91.234  99.343  1.00  0.00     0.126 C 
ENDBRANCH  14  17
ENDBRANCH   1  11
BRANCH   1  20
HETATM   20  C   LIG     1      86.649  89.773  92.436  1.00  0.00    -0.014 A 
HETATM   21  C   LIG     1      86.534  88.381  92.629  1.00  0.00    -0.002 A 
HETATM   22  C   LIG     1      85.375  87.694  92.220  1.00  0.00     0.023 A 
HETATM   23  C   LIG     1      84.305  88.387  91.607  1.00  0.00     0.127 A 
HETATM   24  C   LIG     1      84.425  89.782  91.412  1.00  0.00     0.023 A 
HETATM   25  C   LIG     1      85.583  90.469  91.821  1.00  0.00    -0.002 A 
BRANCH  23  26
HETATM   26  N   LIG     1      83.090  87.668  91.177  1.00  0.00    -0.114 N 
HETATM   27  O   LIG     1      82.303  88.247  90.434  1.00  0.00    -0.532 OA
HETATM   28  O   LIG     1      82.920  86.522  91.580  1.00  0.00    -0.532 OA
ENDBRANCH  23  26
ENDBRANCH   1  20
TORSDOF 6
ENDMDL
MODEL 7
REMARK VINA RESULT:      -0.0      6.982     10.883
REMARK  6 active torsions:
REMARK  status: ('A' for Active; 'I' for Inactive)
REMARK    1  A    between atoms: C_1  and  C_11 
REMARK    2  A    between atoms: C_1  and  C_20 
REMARK    3  A    between atoms: C_1  and  C_2 
REMARK    4  A    between atoms: C_5  and  N_8 
REMARK    5  A    between atoms: C_14  and  N_17 
REMARK    6  A    between atoms: C_23  and  N_26 
ROOT
HETATM    1  C   LIG     1      86.924  93.084  92.798  1.00  0.00     0.067 C 
ENDROOT
BRANCH   1   2
HETATM    2  C   LIG     1      87.358  94.481  92.358  1.00  0.00    -0.014 A 
HETATM    3  C   LIG     1      88.716  94.727  92.070  1.00  0.00    -0.002 A 
HETATM    4  C   LIG     1      89.143  96.007  91.667  1.00  0.00     0.017 A 
HETATM    5  C   LIG     1      88.226  97.080  91.542  1.00  0.00     0.056 A 
HETATM    6  C   LIG     1      86.864  96.821  91.837  1.00  0.00     0.017 A 
HETATM    7  C   LIG     1      86.435  95.542  92.239  1.00  0.00    -0.002 A 
BRANCH   5   8
HETATM    8  N   LIG     1      88.656  98.366  91.137  1.00  0.00    -0.344 N 
HETATM    9  C   LIG     1      90.058  98.747  91.267  1.00  0.00     0.126 C 
HETATM   10  C   LIG     1      87.701  99.321  90.585  1.00  0.00     0.126 C 
ENDBRANCH   5   8
ENDBRANCH   1   2
BRANCH   1  11
HETATM   11  C   LIG     1      85.738  93.087  93.764  1.00  0.00    -0.014 A 
HETATM   12  C   LIG     1      84.424  92.813  93.325  1.00  0.00    -0.002 A 
HETATM   13  C   LIG     1      83.351  92.818  94.237  1.00  0.00     0.017 A 
HETATM   14  C   LIG     1      83.558  93.092  95.612  1.00  0.00     0.056 A 
HETATM   15  C   LIG     1      84.883  93.361  96.040  1.00  0.00     0.017 A 
HETATM   16  C   LIG     1      85.955  93.358  95.129  1.00  0.00    -0.002 A 
BRANCH  14  17
HETATM   17  N   LIG     1      82.479  93.096  96.528  1.00  0.00    -0.344 N 
HETATM   18  C   LIG     1      82.705  93.424  97.931  1.00  0.00     0.126 C 
HETATM   19  C   LIG     1      81.130  92.774  96.076  1.00  0.00     0.126 C 
ENDBRANCH  14  17
ENDBRANCH   1  11
BRANCH   1  20
HETATM   20  C   LIG     1      86.766  92.099  91.640  1.00  0.00    -0.014 A 
HETATM   21  C   LIG     1      87.042  90.732  91.851  1.00  0.00    -0.002 A 
HETATM   22  C   LIG     1      86.911  89.803  90.801  1.00  0.00     0.023 A 
HETATM   23  C   LIG     1      86.500  90.225  89.514  1.00  0.00     0.127 A 
HETATM   24  C   LIG     1      86.227  91.596  89.305  1.00  0.00     0.023 A 
HETATM   25  C   LIG     1      86.358  92.524  90.355  1.00  0.00    -0.002 A 
BRANCH  23  26
HETATM   26  N   LIG     1      86.362  89.252  88.412  1.00  0.00    -0.114 N 
HETATM   27  O   LIG     1      86.072  89.674  87.297  1.00  0.00    -0.532 OA
HETATM   28  O   LIG     1      86.545  88.065  88.659  1.00  0.00    -0.532 OA
ENDBRANCH  23  26
ENDBRANCH   1  20
TORSDOF 6
ENDMDL
MODEL 8
REMARK VINA RESULT:      -0.0      5.881      8.987
REMARK  6 active torsions:
REMARK  status: ('A' for Active; 'I' for Inactive)
REMARK    1  A    between atoms: C_1  and  C_11 
REMARK    2  A    between atoms: C_1  and  C_20 
REMARK    3  A    between atoms: C_1  and  C_2 
REMARK    4  A    between atoms: C_5  and  N_8 
REMARK    5  A    between atoms: C_14  and  N_17 
REMARK    6  A    between atoms: C_23  and  N_26 
ROOT
HETATM    1  C   LIG     1      86.498  85.670  91.091  1.00  0.00     0.067 C 
ENDROOT
BRANCH   1   2
HETATM    2  C   LIG     1      86.836  85.139  92.484  1.00  0.00    -0.014 A 
HETATM    3  C   LIG     1      86.206  83.969  92.952  1.00  0.00    -0.002 A 
HETATM    4  C   LIG     1      86.496  83.461  94.233  1.00  0.00     0.017 A 
HETATM    5  C   LIG     1      87.423  84.109  95.085  1.00  0.00     0.056 A 
HETATM    6  C   LIG     1      88.050  85.287  94.605  1.00  0.00     0.017 A 
HETATM    7  C   LIG     1      87.761  85.795  93.324  1.00  0.00    -0.002 A 
BRANCH   5   8
HETATM    8  N   LIG     1      87.715  83.599  96.373  1.00  0.00    -0.344 N 
HETATM    9  C   LIG     1      86.769  82.714  97.044  1.00  0.00     0.126 C 
HETATM   10  C   LIG     1      88.964  83.952  97.038  1.00  0.00     0.126 C 
ENDBRANCH   5   8
ENDBRANCH   1   2
BRANCH   1  11
HETATM   11  C   LIG     1      86.582  87.192  90.979  1.00  0.00    -0.014 A 
HETATM   12  C   LIG     1      87.702  87.833  90.406  1.00  0.00    -0.002 A 
HETATM   13  C   LIG     1      87.752  89.237  90.310  1.00  0.00     0.017 A 
HETATM   14  C   LIG     1      86.685  90.042  90.782  1.00  0.00     0.056 A 
HETATM   15  C   LIG     1      85.565  89.386  91.352  1.00  0.00     0.017 A 
HETATM   16  C   LIG     1      85.515  87.983  91.448  1.00  0.00    -0.002 A 
BRANCH  14  17
HETATM   17  N   LIG     1      86.735  91.453  90.685  1.00  0.00    -0.344 N 
HETATM   18  C   LIG     1      87.898  92.110  90.100  1.00  0.00     0.126 C 
HETATM   19  C   LIG     1      85.622  92.263  91.168  1.00  0.00     0.126 C 
ENDBRANCH  14  17
ENDBRANCH   1  11
BRANCH   1  20
HETATM   20  C   LIG     1      87.221  84.933  89.963  1.00  0.00    -0.014 A 
HETATM   21  C   LIG     1      86.587  84.793  88.711  1.00  0.00    -0.002 A 
HETATM   22  C   LIG     1      87.228  84.115  87.656  1.00  0.00     0.023 A 
HETATM   23  C   LIG     1      88.517  83.560  87.833  1.00  0.00     0.127 A 
HETATM   24  C   LIG     1      89.147  83.700  89.091  1.00  0.00     0.023 A 
HETATM   25  C   LIG     1      88.507  84.378  90.145  1.00  0.00    -0.002 A 
BRANCH  23  26
HETATM   26  N   LIG     1      89.188  82.848  86.728  1.00  0.00    -0.114 N 
HETATM   27  O   LIG     1      90.281  82.334  86.947  1.00  0.00    -0.532 OA
HETATM   28  O   LIG     1      88.624  82.800  85.640  1.00  0.00    -0.532 OA
ENDBRANCH  23  26
ENDBRANCH   1  20
TORSDOF 6
ENDMDL
MODEL 9
REMARK VINA RESULT:      -0.0      4.310      7.561
REMARK  6 active torsions:
REMARK  status: ('A' for Active; 'I' for Inactive)
REMARK    1  A    between atoms: C_1  and  C_11 
REMARK    2  A    between atoms: C_1  and  C_20 
REMARK    3  A    between atoms: C_1  and  C_2 
REMARK    4  A    between atoms: C_5  and  N_8 
REMARK    5  A    between atoms: C_14  and  N_17 
REMARK    6  A    between atoms: C_23  and  N_26 
ROOT
HETATM    1  C   LIG     1      93.304  89.180  89.647  1.00  0.00     0.067 C 
ENDROOT
BRANCH   1   2
HETATM    2  C   LIG     1      94.036  90.519  89.550  1.00  0.00    -0.014 A 
HETATM    3  C   LIG     1      95.352  90.628  90.041  1.00  0.00    -0.002 A 
HETATM    4  C   LIG     1      96.046  91.851  89.968  1.00  0.00     0.017 A 
HETATM    5  C   LIG     1      95.444  93.002  89.405  1.00  0.00     0.056 A 
HETATM    6  C   LIG     1      94.118  92.882  88.917  1.00  0.00     0.017 A 
HETATM    7  C   LIG     1      93.424  91.660  88.988  1.00  0.00    -0.002 A 
BRANCH   5   8
HETATM    8  N   LIG     1      96.142  94.232  89.332  1.00  0.00    -0.344 N 
HETATM    9  C   LIG     1      95.505  95.403  88.740  1.00  0.00     0.126 C 
HETATM   10  C   LIG     1      97.502  94.337  89.848  1.00  0.00     0.126 C 
ENDBRANCH   5   8
ENDBRANCH   1   2
BRANCH   1  11
HETATM   11  C   LIG     1      91.793  89.320  89.828  1.00  0.00    -0.014 A 
HETATM   12  C   LIG     1      90.898  89.160  88.748  1.00  0.00    -0.002 A 
HETATM   13  C   LIG     1      89.510  89.289  88.944  1.00  0.00     0.017 A 
HETATM   14  C   LIG     1      88.974  89.578  90.224  1.00  0.00     0.056 A 
HETATM   15  C   LIG     1      89.882  89.733  91.300  1.00  0.00     0.017 A 
HETATM   16  C   LIG     1      91.270  89.605  91.105  1.00  0.00    -0.002 A 
BRANCH  14  17
HETATM   17  N   LIG     1      87.578  89.707  90.420  1.00  0.00    -0.344 N 
HETATM   18  C   LIG     1      87.045  90.003  91.745  1.00  0.00     0.126 C 
HETATM   19  C   LIG     1      86.660  89.549  89.297  1.00  0.00     0.126 C 
ENDBRANCH  14  17
ENDBRANCH   1  11
BRANCH   1  20
HETATM   20  C   LIG     1      93.700  88.187  88.555  1.00  0.00    -0.014 A 
HETATM   21  C   LIG     1      93.688  86.805  88.838  1.00  0.00    -0.002 A 
HETATM   22  C   LIG     1      94.053  85.868  87.852  1.00  0.00     0.023 A 
HETATM   23  C   LIG     1      94.439  86.295  86.560  1.00  0.00     0.127 A 
HETATM   24  C   LIG     1      94.452  87.681  86.280  1.00  0.00     0.023 A 
HETATM   25  C   LIG     1      94.087  88.617  87.265  1.00  0.00    -0.002 A 
BRANCH  23  26
HETATM   26  N   LIG     1      94.822  85.314  85.526  1.00  0.00    -0.114 N 
HETATM   27  O   LIG     1      95.201  85.734  84.437  1.00  0.00    -0.532 OA
HETATM   28  O   LIG     1      94.746  84.121  85.801  1.00  0.00    -0.532 OA
ENDBRANCH  23  26
ENDBRANCH   1  20
TORSDOF 6
ENDMDL
