MODEL 1
REMARK VINA RESULT:      -0.0      0.000      0.000
REMARK  5 active torsions:
REMARK  status: ('A' for Active; 'I' for Inactive)
REMARK    1  A    between atoms: C_3  and  C_25 
REMARK    2  A    between atoms: C_17  and  O_32 
REMARK    3  A    between atoms: C_25  and  C_27 
REMARK    4  A    between atoms: C_27  and  C_28 
REMARK    5  A    between atoms: C_28  and  C_29 
ROOT
HETATM    1  O   LIG     1      89.850  92.926  88.237  1.00  0.00    -0.296 OA
HETATM    2  O   LIG     1      84.784  89.794  87.890  1.00  0.00    -0.296 OA
HETATM    3  C   LIG     1      89.630  88.141  87.046  1.00  0.00     0.000 C 
HETATM    4  C   LIG     1      88.348  87.447  86.507  1.00  0.00     0.000 C 
HETATM    5  C   LIG     1      89.058  89.299  87.928  1.00  0.00     0.007 C 
HETATM    6  C   LIG     1      90.000  90.531  88.103  1.00  0.00     0.065 C 
HETATM    7  C   LIG     1      89.268  91.855  88.394  1.00  0.00     0.151 C 
HETATM    8  C   LIG     1      87.158  88.385  86.783  1.00  0.00     0.000 C 
HETATM    9  C   LIG     1      87.802  89.747  87.101  1.00  0.00     0.007 C 
HETATM   10  C   LIG     1      87.796  91.748  88.850  1.00  0.00     0.065 C 
HETATM   11  C   LIG     1      86.968  90.862  87.847  1.00  0.00     0.065 C 
HETATM   12  C   LIG     1      87.022  93.045  89.305  1.00  0.00     0.007 C 
HETATM   13  C   LIG     1      86.932  94.025  88.093  1.00  0.00     0.003 C 
HETATM   14  C   LIG     1      85.783  95.021  88.142  1.00  0.00     0.029 C 
HETATM   15  C   LIG     1      85.626  90.472  88.475  1.00  0.00     0.151 C 
HETATM   16  C   LIG     1      85.614  92.601  89.926  1.00  0.00     0.010 C 
HETATM   17  C   LIG     1      84.464  94.269  88.308  1.00  0.00     0.111 C 
HETATM   18  C   LIG     1      85.344  91.064  89.848  1.00  0.00     0.065 C 
HETATM   19  C   LIG     1      84.365  93.551  89.681  1.00  0.00     0.025 C 
HETATM   20  C   LIG     1      83.021  92.779  89.719  1.00  0.00     0.002 C 
HETATM   21  C   LIG     1      84.274  94.587  90.837  1.00  0.00     0.002 C 
HETATM   22  C   LIG     1      87.815  93.759  90.434  1.00  0.00     0.000 C 
HETATM   23  C   LIG     1      88.689  88.689  89.320  1.00  0.00     0.000 C 
HETATM   24  C   LIG     1      88.145  90.369  85.705  1.00  0.00     0.000 C 
ENDROOT
BRANCH   3  25
HETATM   25  C   LIG     1      90.656  87.130  87.652  1.00  0.00     0.001 C 
HETATM   26  C   LIG     1      90.290  85.685  87.243  1.00  0.00     0.000 C 
BRANCH  25  27
HETATM   27  C   LIG     1      92.123  87.437  87.251  1.00  0.00     0.011 C 
BRANCH  27  28
HETATM   28  C   LIG     1      92.948  88.293  88.242  1.00  0.00     0.098 C 
BRANCH  28  29
HETATM   29  C   LIG     1      92.686  87.944  89.713  1.00  0.00     0.185 C 
HETATM   30  O   LIG     1      92.081  88.782  90.418  1.00  0.00    -0.647 OA
HETATM   31  O   LIG     1      93.115  86.840  90.113  1.00  0.00    -0.647 OA
ENDBRANCH  28  29
ENDBRANCH  27  28
ENDBRANCH  25  27
ENDBRANCH   3  25
BRANCH  17  32
HETATM   32  O   LIG     1      83.409  95.192  88.110  1.00  0.00    -0.385 OA
HETATM   33  H   LIG     1      83.028  95.032  87.261  1.00  0.00     0.210 HD
ENDBRANCH  17  32
TORSDOF 5
ENDMDL
MODEL 2
REMARK VINA RESULT:      -0.0      4.030      6.515
REMARK  5 active torsions:
REMARK  status: ('A' for Active; 'I' for Inactive)
REMARK    1  A    between atoms: C_3  and  C_25 
REMARK    2  A    between atoms: C_17  and  O_32 
REMARK    3  A    between atoms: C_25  and  C_27 
REMARK    4  A    between atoms: C_27  and  C_28 
REMARK    5  A    between atoms: C_28  and  C_29 
ROOT
HETATM    1  O   LIG     1      89.031  95.289  89.994  1.00  0.00    -0.296 OA
HETATM    2  O   LIG     1      84.654  93.712  86.260  1.00  0.00    -0.296 OA
HETATM    3  C   LIG     1      85.694  91.784  90.964  1.00  0.00     0.000 C 
HETATM    4  C   LIG     1      84.870  91.054  89.867  1.00  0.00     0.000 C 
HETATM    5  C   LIG     1      85.978  93.180  90.319  1.00  0.00     0.007 C 
HETATM    6  C   LIG     1      87.256  93.907  90.840  1.00  0.00     0.065 C 
HETATM    7  C   LIG     1      87.875  94.901  89.840  1.00  0.00     0.151 C 
HETATM    8  C   LIG     1      85.005  91.864  88.565  1.00  0.00     0.000 C 
HETATM    9  C   LIG     1      86.200  92.803  88.812  1.00  0.00     0.007 C 
HETATM   10  C   LIG     1      86.986  95.337  88.654  1.00  0.00     0.065 C 
HETATM   11  C   LIG     1      86.405  94.080  87.905  1.00  0.00     0.065 C 
HETATM   12  C   LIG     1      87.492  96.458  87.667  1.00  0.00     0.007 C 
HETATM   13  C   LIG     1      88.784  95.950  86.953  1.00  0.00     0.003 C 
HETATM   14  C   LIG     1      89.085  96.596  85.609  1.00  0.00     0.029 C 
HETATM   15  C   LIG     1      85.266  94.504  86.973  1.00  0.00     0.151 C 
HETATM   16  C   LIG     1      86.286  96.852  86.689  1.00  0.00     0.010 C 
HETATM   17  C   LIG     1      87.879  96.436  84.686  1.00  0.00     0.111 C 
HETATM   18  C   LIG     1      84.994  95.998  86.901  1.00  0.00     0.065 C 
HETATM   19  C   LIG     1      86.644  97.231  85.188  1.00  0.00     0.025 C 
HETATM   20  C   LIG     1      85.469  96.954  84.215  1.00  0.00     0.002 C 
HETATM   21  C   LIG     1      86.901  98.761  85.094  1.00  0.00     0.002 C 
HETATM   22  C   LIG     1      87.865  97.734  88.470  1.00  0.00     0.000 C 
HETATM   23  C   LIG     1      84.710  94.067  90.548  1.00  0.00     0.000 C 
HETATM   24  C   LIG     1      87.468  91.920  88.556  1.00  0.00     0.000 C 
ENDROOT
BRANCH   3  25
HETATM   25  C   LIG     1      85.033  91.695  92.377  1.00  0.00     0.001 C 
HETATM   26  C   LIG     1      83.925  90.617  92.384  1.00  0.00     0.000 C 
BRANCH  25  27
HETATM   27  C   LIG     1      86.054  91.411  93.511  1.00  0.00     0.011 C 
BRANCH  27  28
HETATM   28  C   LIG     1      86.615  92.641  94.263  1.00  0.00     0.098 C 
BRANCH  28  29
HETATM   29  C   LIG     1      85.563  93.726  94.528  1.00  0.00     0.185 C 
HETATM   30  O   LIG     1      85.661  94.806  93.905  1.00  0.00    -0.647 OA
HETATM   31  O   LIG     1      84.679  93.456  95.371  1.00  0.00    -0.647 OA
ENDBRANCH  28  29
ENDBRANCH  27  28
ENDBRANCH  25  27
ENDBRANCH   3  25
BRANCH  17  32
HETATM   32  O   LIG     1      88.272  96.827  83.384  1.00  0.00    -0.385 OA
HETATM   33  H   LIG     1      88.440  96.049  82.876  1.00  0.00     0.210 HD
ENDBRANCH  17  32
TORSDOF 5
ENDMDL
MODEL 3
REMARK VINA RESULT:      -0.0      3.600      6.287
REMARK  5 active torsions:
REMARK  status: ('A' for Active; 'I' for Inactive)
REMARK    1  A    between atoms: C_3  and  C_25 
REMARK    2  A    between atoms: C_17  and  O_32 
REMARK    3  A    between atoms: C_25  and  C_27 
REMARK    4  A    between atoms: C_27  and  C_28 
REMARK    5  A    between atoms: C_28  and  C_29 
ROOT
HETATM    1  O   LIG     1      88.593  92.637  93.510  1.00  0.00    -0.296 OA
HETATM    2  O   LIG     1      86.656  92.736  87.868  1.00  0.00    -0.296 OA
HETATM    3  C   LIG     1      90.152  95.852  90.105  1.00  0.00     0.000 C 
HETATM    4  C   LIG     1      89.354  96.193  88.815  1.00  0.00     0.000 C 
HETATM    5  C   LIG     1      89.707  94.385  90.415  1.00  0.00     0.007 C 
HETATM    6  C   LIG     1      89.807  93.961  91.913  1.00  0.00     0.065 C 
HETATM    7  C   LIG     1      88.838  92.836  92.322  1.00  0.00     0.151 C 
HETATM    8  C   LIG     1      88.269  95.114  88.638  1.00  0.00     0.000 C 
HETATM    9  C   LIG     1      88.192  94.411  90.005  1.00  0.00     0.007 C 
HETATM   10  C   LIG     1      88.193  92.025  91.176  1.00  0.00     0.065 C 
HETATM   11  C   LIG     1      87.521  92.986  90.126  1.00  0.00     0.065 C 
HETATM   12  C   LIG     1      87.304  90.766  91.513  1.00  0.00     0.007 C 
HETATM   13  C   LIG     1      86.063  91.236  92.335  1.00  0.00     0.003 C 
HETATM   14  C   LIG     1      84.847  90.325  92.261  1.00  0.00     0.029 C 
HETATM   15  C   LIG     1      87.201  92.218  88.840  1.00  0.00     0.151 C 
HETATM   16  C   LIG     1      86.964  90.008  90.143  1.00  0.00     0.010 C 
HETATM   17  C   LIG     1      84.458  90.113  90.799  1.00  0.00     0.111 C 
HETATM   18  C   LIG     1      87.509  90.729  88.868  1.00  0.00     0.065 C 
HETATM   19  C   LIG     1      85.536  89.323  90.012  1.00  0.00     0.025 C 
HETATM   20  C   LIG     1      85.069  89.216  88.538  1.00  0.00     0.002 C 
HETATM   21  C   LIG     1      85.623  87.857  90.521  1.00  0.00     0.002 C 
HETATM   22  C   LIG     1      88.111  89.775  92.395  1.00  0.00     0.000 C 
HETATM   23  C   LIG     1      90.568  93.436  89.518  1.00  0.00     0.000 C 
HETATM   24  C   LIG     1      87.307  95.349  90.894  1.00  0.00     0.000 C 
ENDROOT
BRANCH   3  25
HETATM   25  C   LIG     1      91.670  96.201  89.987  1.00  0.00     0.001 C 
HETATM   26  C   LIG     1      91.917  97.110  88.761  1.00  0.00     0.000 C 
BRANCH  25  27
HETATM   27  C   LIG     1      92.243  96.869  91.265  1.00  0.00     0.011 C 
BRANCH  27  28
HETATM   28  C   LIG     1      92.922  95.931  92.293  1.00  0.00     0.098 C 
BRANCH  28  29
HETATM   29  C   LIG     1      93.766  94.826  91.644  1.00  0.00     0.185 C 
HETATM   30  O   LIG     1      93.358  93.647  91.729  1.00  0.00    -0.647 OA
HETATM   31  O   LIG     1      94.825  95.186  91.084  1.00  0.00    -0.647 OA
ENDBRANCH  28  29
ENDBRANCH  27  28
ENDBRANCH  25  27
ENDBRANCH   3  25
BRANCH  17  32
HETATM   32  O   LIG     1      83.198  89.469  90.774  1.00  0.00    -0.385 OA
HETATM   33  H   LIG     1      83.118  89.002  89.956  1.00  0.00     0.210 HD
ENDBRANCH  17  32
TORSDOF 5
ENDMDL
MODEL 4
REMARK VINA RESULT:      -0.0      4.736      5.986
REMARK  5 active torsions:
REMARK  status: ('A' for Active; 'I' for Inactive)
REMARK    1  A    between atoms: C_3  and  C_25 
REMARK    2  A    between atoms: C_17  and  O_32 
REMARK    3  A    between atoms: C_25  and  C_27 
REMARK    4  A    between atoms: C_27  and  C_28 
REMARK    5  A    between atoms: C_28  and  C_29 
ROOT
HETATM    1  O   LIG     1      88.618  92.467  92.365  1.00  0.00    -0.296 OA
HETATM    2  O   LIG     1      87.757  86.919  94.383  1.00  0.00    -0.296 OA
HETATM    3  C   LIG     1      91.447  88.609  91.149  1.00  0.00     0.000 C 
HETATM    4  C   LIG     1      90.985  87.130  91.275  1.00  0.00     0.000 C 
HETATM    5  C   LIG     1      90.624  89.330  92.267  1.00  0.00     0.007 C 
HETATM    6  C   LIG     1      90.364  90.849  92.027  1.00  0.00     0.065 C 
HETATM    7  C   LIG     1      89.103  91.396  92.723  1.00  0.00     0.151 C 
HETATM    8  C   LIG     1      89.725  87.108  92.160  1.00  0.00     0.000 C 
HETATM    9  C   LIG     1      89.252  88.573  92.201  1.00  0.00     0.007 C 
HETATM   10  C   LIG     1      88.493  90.521  93.841  1.00  0.00     0.065 C 
HETATM   11  C   LIG     1      88.255  89.052  93.329  1.00  0.00     0.065 C 
HETATM   12  C   LIG     1      87.290  91.074  94.698  1.00  0.00     0.007 C 
HETATM   13  C   LIG     1      86.071  91.314  93.753  1.00  0.00     0.003 C 
HETATM   14  C   LIG     1      84.707  91.287  94.426  1.00  0.00     0.029 C 
HETATM   15  C   LIG     1      87.990  88.119  94.514  1.00  0.00     0.151 C 
HETATM   16  C   LIG     1      87.022  90.058  95.907  1.00  0.00     0.010 C 
HETATM   17  C   LIG     1      84.536  89.968  95.177  1.00  0.00     0.111 C 
HETATM   18  C   LIG     1      87.932  88.787  95.879  1.00  0.00     0.065 C 
HETATM   19  C   LIG     1      85.519  89.840  96.372  1.00  0.00     0.025 C 
HETATM   20  C   LIG     1      85.300  88.451  97.024  1.00  0.00     0.002 C 
HETATM   21  C   LIG     1      85.171  90.872  97.481  1.00  0.00     0.002 C 
HETATM   22  C   LIG     1      87.679  92.440  95.328  1.00  0.00     0.000 C 
HETATM   23  C   LIG     1      91.381  89.110  93.619  1.00  0.00     0.000 C 
HETATM   24  C   LIG     1      88.471  88.784  90.859  1.00  0.00     0.000 C 
ENDROOT
BRANCH   3  25
HETATM   25  C   LIG     1      93.002  88.755  91.103  1.00  0.00     0.001 C 
HETATM   26  C   LIG     1      93.662  87.382  90.842  1.00  0.00     0.000 C 
BRANCH  25  27
HETATM   27  C   LIG     1      93.487  89.784  90.048  1.00  0.00     0.011 C 
BRANCH  27  28
HETATM   28  C   LIG     1      93.740  91.226  90.550  1.00  0.00     0.098 C 
BRANCH  28  29
HETATM   29  C   LIG     1      94.401  91.282  91.933  1.00  0.00     0.185 C 
HETATM   30  O   LIG     1      93.721  91.702  92.895  1.00  0.00    -0.647 OA
HETATM   31  O   LIG     1      95.594  90.914  91.999  1.00  0.00    -0.647 OA
ENDBRANCH  28  29
ENDBRANCH  27  28
ENDBRANCH  25  27
ENDBRANCH   3  25
BRANCH  17  32
HETATM   32  O   LIG     1      83.184  89.872  95.585  1.00  0.00    -0.385 OA
HETATM   33  H   LIG     1      83.080  89.081  96.090  1.00  0.00     0.210 HD
ENDBRANCH  17  32
TORSDOF 5
ENDMDL
MODEL 5
REMARK VINA RESULT:      -0.0      5.426      7.506
REMARK  5 active torsions:
REMARK  status: ('A' for Active; 'I' for Inactive)
REMARK    1  A    between atoms: C_3  and  C_25 
REMARK    2  A    between atoms: C_17  and  O_32 
REMARK    3  A    between atoms: C_25  and  C_27 
REMARK    4  A    between atoms: C_27  and  C_28 
REMARK    5  A    between atoms: C_28  and  C_29 
ROOT
HETATM    1  O   LIG     1      89.903  87.681  86.705  1.00  0.00    -0.296 OA
HETATM    2  O   LIG     1      91.359  90.018  81.412  1.00  0.00    -0.296 OA
HETATM    3  C   LIG     1      94.223  89.864  85.737  1.00  0.00     0.000 C 
HETATM    4  C   LIG     1      94.439  90.859  84.563  1.00  0.00     0.000 C 
HETATM    5  C   LIG     1      93.072  88.945  85.211  1.00  0.00     0.007 C 
HETATM    6  C   LIG     1      92.200  88.270  86.315  1.00  0.00     0.065 C 
HETATM    7  C   LIG     1      90.770  87.914  85.866  1.00  0.00     0.151 C 
HETATM    8  C   LIG     1      93.240  90.721  83.606  1.00  0.00     0.000 C 
HETATM    9  C   LIG     1      92.177  89.964  84.422  1.00  0.00     0.007 C 
HETATM   10  C   LIG     1      90.503  87.900  84.345  1.00  0.00     0.065 C 
HETATM   11  C   LIG     1      90.974  89.251  83.687  1.00  0.00     0.065 C 
HETATM   12  C   LIG     1      89.108  87.407  83.800  1.00  0.00     0.007 C 
HETATM   13  C   LIG     1      87.996  88.365  84.331  1.00  0.00     0.003 C 
HETATM   14  C   LIG     1      86.725  88.417  83.496  1.00  0.00     0.029 C 
HETATM   15  C   LIG     1      91.036  89.100  82.164  1.00  0.00     0.151 C 
HETATM   16  C   LIG     1      89.201  87.292  82.204  1.00  0.00     0.010 C 
HETATM   17  C   LIG     1      87.077  88.771  82.053  1.00  0.00     0.111 C 
HETATM   18  C   LIG     1      90.570  87.761  81.615  1.00  0.00     0.065 C 
HETATM   19  C   LIG     1      87.906  87.657  81.360  1.00  0.00     0.025 C 
HETATM   20  C   LIG     1      88.254  88.141  79.929  1.00  0.00     0.002 C 
HETATM   21  C   LIG     1      87.047  86.376  81.160  1.00  0.00     0.002 C 
HETATM   22  C   LIG     1      88.807  85.983  84.343  1.00  0.00     0.000 C 
HETATM   23  C   LIG     1      93.724  87.862  84.289  1.00  0.00     0.000 C 
HETATM   24  C   LIG     1      91.506  91.054  85.325  1.00  0.00     0.000 C 
ENDROOT
BRANCH   3  25
HETATM   25  C   LIG     1      95.557  89.233  86.249  1.00  0.00     0.001 C 
HETATM   26  C   LIG     1      96.769  90.018  85.697  1.00  0.00     0.000 C 
BRANCH  25  27
HETATM   27  C   LIG     1      95.640  89.153  87.797  1.00  0.00     0.011 C 
BRANCH  27  28
HETATM   28  C   LIG     1      95.195  87.821  88.448  1.00  0.00     0.098 C 
BRANCH  28  29
HETATM   29  C   LIG     1      95.640  86.581  87.662  1.00  0.00     0.185 C 
HETATM   30  O   LIG     1      94.761  85.904  87.084  1.00  0.00    -0.647 OA
HETATM   31  O   LIG     1      96.863  86.323  87.667  1.00  0.00    -0.647 OA
ENDBRANCH  28  29
ENDBRANCH  27  28
ENDBRANCH  25  27
ENDBRANCH   3  25
BRANCH  17  32
HETATM   32  O   LIG     1      85.870  89.045  81.365  1.00  0.00    -0.385 OA
HETATM   33  H   LIG     1      86.084  89.422  80.526  1.00  0.00     0.210 HD
ENDBRANCH  17  32
TORSDOF 5
ENDMDL
MODEL 6
REMARK VINA RESULT:      -0.0      3.079      7.268
REMARK  5 active torsions:
REMARK  status: ('A' for Active; 'I' for Inactive)
REMARK    1  A    between atoms: C_3  and  C_25 
REMARK    2  A    between atoms: C_17  and  O_32 
REMARK    3  A    between atoms: C_25  and  C_27 
REMARK    4  A    between atoms: C_27  and  C_28 
REMARK    5  A    between atoms: C_28  and  C_29 
ROOT
HETATM    1  O   LIG     1      90.499  95.057  88.704  1.00  0.00    -0.296 OA
HETATM    2  O   LIG     1      88.525  90.071  91.319  1.00  0.00    -0.296 OA
HETATM    3  C   LIG     1      85.976  93.193  88.049  1.00  0.00     0.000 C 
HETATM    4  C   LIG     1      85.302  92.204  89.041  1.00  0.00     0.000 C 
HETATM    5  C   LIG     1      87.500  92.897  88.240  1.00  0.00     0.007 C 
HETATM    6  C   LIG     1      88.456  94.081  87.897  1.00  0.00     0.065 C 
HETATM    7  C   LIG     1      89.806  94.045  88.639  1.00  0.00     0.151 C 
HETATM    8  C   LIG     1      86.398  91.659  89.975  1.00  0.00     0.000 C 
HETATM    9  C   LIG     1      87.586  92.619  89.782  1.00  0.00     0.007 C 
HETATM   10  C   LIG     1      90.199  92.704  89.299  1.00  0.00     0.065 C 
HETATM   11  C   LIG     1      89.038  92.181  90.225  1.00  0.00     0.065 C 
HETATM   12  C   LIG     1      91.625  92.542  89.953  1.00  0.00     0.007 C 
HETATM   13  C   LIG     1      91.750  93.553  91.136  1.00  0.00     0.003 C 
HETATM   14  C   LIG     1      92.760  93.178  92.210  1.00  0.00     0.029 C 
HETATM   15  C   LIG     1      89.278  90.713  90.590  1.00  0.00     0.151 C 
HETATM   16  C   LIG     1      91.827  91.003  90.349  1.00  0.00     0.010 C 
HETATM   17  C   LIG     1      92.442  91.782  92.744  1.00  0.00     0.111 C 
HETATM   18  C   LIG     1      90.575  90.109  90.073  1.00  0.00     0.065 C 
HETATM   19  C   LIG     1      92.648  90.681  91.670  1.00  0.00     0.025 C 
HETATM   20  C   LIG     1      92.245  89.322  92.296  1.00  0.00     0.002 C 
HETATM   21  C   LIG     1      94.155  90.537  91.314  1.00  0.00     0.002 C 
HETATM   22  C   LIG     1      92.722  92.894  88.910  1.00  0.00     0.000 C 
HETATM   23  C   LIG     1      87.845  91.644  87.371  1.00  0.00     0.000 C 
HETATM   24  C   LIG     1      87.253  93.862  90.675  1.00  0.00     0.000 C 
ENDROOT
BRANCH   3  25
HETATM   25  C   LIG     1      85.342  93.145  86.622  1.00  0.00     0.001 C 
HETATM   26  C   LIG     1      83.994  92.390  86.659  1.00  0.00     0.000 C 
BRANCH  25  27
HETATM   27  C   LIG     1      85.143  94.551  85.996  1.00  0.00     0.011 C 
BRANCH  27  28
HETATM   28  C   LIG     1      86.272  95.063  85.069  1.00  0.00     0.098 C 
BRANCH  28  29
HETATM   29  C   LIG     1      86.859  93.973  84.164  1.00  0.00     0.185 C 
HETATM   30  O   LIG     1      88.028  93.588  84.387  1.00  0.00    -0.647 OA
HETATM   31  O   LIG     1      86.124  93.552  83.244  1.00  0.00    -0.647 OA
ENDBRANCH  28  29
ENDBRANCH  27  28
ENDBRANCH  25  27
ENDBRANCH   3  25
BRANCH  17  32
HETATM   32  O   LIG     1      93.239  91.564  93.893  1.00  0.00    -0.385 OA
HETATM   33  H   LIG     1      93.563  92.398  94.194  1.00  0.00     0.210 HD
ENDBRANCH  17  32
TORSDOF 5
ENDMDL
MODEL 7
REMARK VINA RESULT:      -0.0      5.213      7.270
REMARK  5 active torsions:
REMARK  status: ('A' for Active; 'I' for Inactive)
REMARK    1  A    between atoms: C_3  and  C_25 
REMARK    2  A    between atoms: C_17  and  O_32 
REMARK    3  A    between atoms: C_25  and  C_27 
REMARK    4  A    between atoms: C_27  and  C_28 
REMARK    5  A    between atoms: C_28  and  C_29 
ROOT
HETATM    1  O   LIG     1      93.378  91.937  87.715  1.00  0.00    -0.296 OA
HETATM    2  O   LIG     1      93.761  89.962  82.098  1.00  0.00    -0.296 OA
HETATM    3  C   LIG     1      96.424  88.340  86.247  1.00  0.00     0.000 C 
HETATM    4  C   LIG     1      96.869  88.139  84.772  1.00  0.00     0.000 C 
HETATM    5  C   LIG     1      95.016  89.006  86.102  1.00  0.00     0.007 C 
HETATM    6  C   LIG     1      94.568  89.889  87.307  1.00  0.00     0.065 C 
HETATM    7  C   LIG     1      93.560  90.996  86.946  1.00  0.00     0.151 C 
HETATM    8  C   LIG     1      95.926  88.970  83.882  1.00  0.00     0.000 C 
HETATM    9  C   LIG     1      95.223  89.935  84.854  1.00  0.00     0.007 C 
HETATM   10  C   LIG     1      92.841  90.862  85.585  1.00  0.00     0.065 C 
HETATM   11  C   LIG     1      93.885  90.657  84.425  1.00  0.00     0.065 C 
HETATM   12  C   LIG     1      91.692  91.873  85.204  1.00  0.00     0.007 C 
HETATM   13  C   LIG     1      92.295  93.311  85.130  1.00  0.00     0.003 C 
HETATM   14  C   LIG     1      91.534  94.294  84.254  1.00  0.00     0.029 C 
HETATM   15  C   LIG     1      93.173  90.180  83.155  1.00  0.00     0.151 C 
HETATM   16  C   LIG     1      90.993  91.359  83.858  1.00  0.00     0.010 C 
HETATM   17  C   LIG     1      91.384  93.715  82.849  1.00  0.00     0.111 C 
HETATM   18  C   LIG     1      91.658  90.084  83.246  1.00  0.00     0.065 C 
HETATM   19  C   LIG     1      90.481  92.453  82.826  1.00  0.00     0.025 C 
HETATM   20  C   LIG     1      90.444  91.918  81.371  1.00  0.00     0.002 C 
HETATM   21  C   LIG     1      89.009  92.825  83.162  1.00  0.00     0.002 C 
HETATM   22  C   LIG     1      90.604  91.872  86.313  1.00  0.00     0.000 C 
HETATM   23  C   LIG     1      93.981  87.860  85.847  1.00  0.00     0.000 C 
HETATM   24  C   LIG     1      96.249  91.096  85.086  1.00  0.00     0.000 C 
ENDROOT
BRANCH   3  25
HETATM   25  C   LIG     1      96.594  87.050  87.112  1.00  0.00     0.001 C 
HETATM   26  C   LIG     1      97.480  86.022  86.372  1.00  0.00     0.000 C 
BRANCH  25  27
HETATM   27  C   LIG     1      97.177  87.333  88.522  1.00  0.00     0.011 C 
BRANCH  27  28
HETATM   28  C   LIG     1      96.156  87.518  89.670  1.00  0.00     0.098 C 
BRANCH  28  29
HETATM   29  C   LIG     1      94.967  86.552  89.589  1.00  0.00     0.185 C 
HETATM   30  O   LIG     1      93.842  87.025  89.311  1.00  0.00    -0.647 OA
HETATM   31  O   LIG     1      95.206  85.347  89.825  1.00  0.00    -0.647 OA
ENDBRANCH  28  29
ENDBRANCH  27  28
ENDBRANCH  25  27
ENDBRANCH   3  25
BRANCH  17  32
HETATM   32  O   LIG     1      90.891  94.740  82.005  1.00  0.00    -0.385 OA
HETATM   33  H   LIG     1      91.609  95.073  81.491  1.00  0.00     0.210 HD
ENDBRANCH  17  32
TORSDOF 5
ENDMDL
MODEL 8
REMARK VINA RESULT:      -0.0      3.108      5.542
REMARK  5 active torsions:
REMARK  status: ('A' for Active; 'I' for Inactive)
REMARK    1  A    between atoms: C_3  and  C_25 
REMARK    2  A    between atoms: C_17  and  O_32 
REMARK    3  A    between atoms: C_25  and  C_27 
REMARK    4  A    between atoms: C_27  and  C_28 
REMARK    5  A    between atoms: C_28  and  C_29 
ROOT
HETATM    1  O   LIG     1      88.890  90.839  90.812  1.00  0.00    -0.296 OA
HETATM    2  O   LIG     1      92.240  94.436  87.431  1.00  0.00    -0.296 OA
HETATM    3  C   LIG     1      90.715  89.584  86.401  1.00  0.00     0.000 C 
HETATM    4  C   LIG     1      91.931  90.293  85.740  1.00  0.00     0.000 C 
HETATM    5  C   LIG     1      90.092  90.711  87.289  1.00  0.00     0.007 C 
HETATM    6  C   LIG     1      89.280  90.213  88.524  1.00  0.00     0.065 C 
HETATM    7  C   LIG     1      89.213  91.219  89.689  1.00  0.00     0.151 C 
HETATM    8  C   LIG     1      92.169  91.614  86.496  1.00  0.00     0.000 C 
HETATM    9  C   LIG     1      91.369  91.464  87.803  1.00  0.00     0.007 C 
HETATM   10  C   LIG     1      89.597  92.681  89.366  1.00  0.00     0.065 C 
HETATM   11  C   LIG     1      91.000  92.741  88.656  1.00  0.00     0.065 C 
HETATM   12  C   LIG     1      89.417  93.797  90.465  1.00  0.00     0.007 C 
HETATM   13  C   LIG     1      90.344  93.462  91.676  1.00  0.00     0.003 C 
HETATM   14  C   LIG     1      90.744  94.649  92.540  1.00  0.00     0.029 C 
HETATM   15  C   LIG     1      91.214  94.124  88.031  1.00  0.00     0.151 C 
HETATM   16  C   LIG     1      89.678  95.224  89.784  1.00  0.00     0.010 C 
HETATM   17  C   LIG     1      91.391  95.721  91.666  1.00  0.00     0.111 C 
HETATM   18  C   LIG     1      90.110  95.139  88.284  1.00  0.00     0.065 C 
HETATM   19  C   LIG     1      90.386  96.344  90.660  1.00  0.00     0.025 C 
HETATM   20  C   LIG     1      91.155  97.372  89.791  1.00  0.00     0.002 C 
HETATM   21  C   LIG     1      89.302  97.170  91.407  1.00  0.00     0.002 C 
HETATM   22  C   LIG     1      87.950  93.798  90.977  1.00  0.00     0.000 C 
HETATM   23  C   LIG     1      89.193  91.593  86.361  1.00  0.00     0.000 C 
HETATM   24  C   LIG     1      92.282  90.604  88.741  1.00  0.00     0.000 C 
ENDROOT
BRANCH   3  25
HETATM   25  C   LIG     1      89.827  88.819  85.369  1.00  0.00     0.001 C 
HETATM   26  C   LIG     1      90.573  88.673  84.023  1.00  0.00     0.000 C 
BRANCH  25  27
HETATM   27  C   LIG     1      89.369  87.425  85.874  1.00  0.00     0.011 C 
BRANCH  27  28
HETATM   28  C   LIG     1      87.982  87.355  86.556  1.00  0.00     0.098 C 
BRANCH  28  29
HETATM   29  C   LIG     1      86.923  88.232  85.875  1.00  0.00     0.185 C 
HETATM   30  O   LIG     1      86.513  89.243  86.488  1.00  0.00    -0.647 OA
HETATM   31  O   LIG     1      86.527  87.860  84.749  1.00  0.00    -0.647 OA
ENDBRANCH  28  29
ENDBRANCH  27  28
ENDBRANCH  25  27
ENDBRANCH   3  25
BRANCH  17  32
HETATM   32  O   LIG     1      91.962  96.694  92.521  1.00  0.00    -0.385 OA
HETATM   33  H   LIG     1      92.636  96.279  93.036  1.00  0.00     0.210 HD
ENDBRANCH  17  32
TORSDOF 5
ENDMDL
MODEL 9
REMARK VINA RESULT:      -0.0      6.202      8.750
REMARK  5 active torsions:
REMARK  status: ('A' for Active; 'I' for Inactive)
REMARK    1  A    between atoms: C_3  and  C_25 
REMARK    2  A    between atoms: C_17  and  O_32 
REMARK    3  A    between atoms: C_25  and  C_27 
REMARK    4  A    between atoms: C_27  and  C_28 
REMARK    5  A    between atoms: C_28  and  C_29 
ROOT
HETATM    1  O   LIG     1      93.484  85.917  89.334  1.00  0.00    -0.296 OA
HETATM    2  O   LIG     1      94.419  89.888  93.687  1.00  0.00    -0.296 OA
HETATM    3  C   LIG     1      97.467  88.818  89.626  1.00  0.00     0.000 C 
HETATM    4  C   LIG     1      97.945  89.492  90.942  1.00  0.00     0.000 C 
HETATM    5  C   LIG     1      95.923  88.687  89.839  1.00  0.00     0.007 C 
HETATM    6  C   LIG     1      95.235  87.536  89.040  1.00  0.00     0.065 C 
HETATM    7  C   LIG     1      93.938  87.006  89.678  1.00  0.00     0.151 C 
HETATM    8  C   LIG     1      96.790  89.405  91.957  1.00  0.00     0.000 C 
HETATM    9  C   LIG     1      95.833  88.352  91.369  1.00  0.00     0.007 C 
HETATM   10  C   LIG     1      93.287  87.891  90.764  1.00  0.00     0.065 C 
HETATM   11  C   LIG     1      94.338  88.273  91.872  1.00  0.00     0.065 C 
HETATM   12  C   LIG     1      91.884  87.489  91.363  1.00  0.00     0.007 C 
HETATM   13  C   LIG     1      92.023  86.113  92.085  1.00  0.00     0.003 C 
HETATM   14  C   LIG     1      90.996  85.839  93.173  1.00  0.00     0.029 C 
HETATM   15  C   LIG     1      93.797  89.415  92.738  1.00  0.00     0.151 C 
HETATM   16  C   LIG     1      91.366  88.692  92.286  1.00  0.00     0.010 C 
HETATM   17  C   LIG     1      91.021  86.973  94.196  1.00  0.00     0.111 C 
HETATM   18  C   LIG     1      92.382  89.872  92.418  1.00  0.00     0.065 C 
HETATM   19  C   LIG     1      90.542  88.320  93.592  1.00  0.00     0.025 C 
HETATM   20  C   LIG     1      90.662  89.405  94.692  1.00  0.00     0.002 C 
HETATM   21  C   LIG     1      89.028  88.257  93.243  1.00  0.00     0.002 C 
HETATM   22  C   LIG     1      90.853  87.319  90.214  1.00  0.00     0.000 C 
HETATM   23  C   LIG     1      95.282  90.066  89.475  1.00  0.00     0.000 C 
HETATM   24  C   LIG     1      96.461  86.971  91.758  1.00  0.00     0.000 C 
ENDROOT
BRANCH   3  25
HETATM   25  C   LIG     1      98.024  89.523  88.348  1.00  0.00     0.001 C 
HETATM   26  C   LIG     1      99.176  90.483  88.724  1.00  0.00     0.000 C 
BRANCH  25  27
HETATM   27  C   LIG     1      98.501  88.525  87.259  1.00  0.00     0.011 C 
BRANCH  27  28
HETATM   28  C   LIG     1      97.478  88.160  86.157  1.00  0.00     0.098 C 
BRANCH  28  29
HETATM   29  C   LIG     1      96.636  89.353  85.687  1.00  0.00     0.185 C 
HETATM   30  O   LIG     1      95.420  89.367  85.981  1.00  0.00    -0.647 OA
HETATM   31  O   LIG     1      97.229  90.231  85.023  1.00  0.00    -0.647 OA
ENDBRANCH  28  29
ENDBRANCH  27  28
ENDBRANCH  25  27
ENDBRANCH   3  25
BRANCH  17  32
HETATM   32  O   LIG     1      90.238  86.576  95.306  1.00  0.00    -0.385 OA
HETATM   33  H   LIG     1      90.803  86.158  95.936  1.00  0.00     0.210 HD
ENDBRANCH  17  32
TORSDOF 5
ENDMDL
