MODEL 1
REMARK VINA RESULT:      -0.0      0.000      0.000
REMARK  4 active torsions:
REMARK  status: ('A' for Active; 'I' for Inactive)
REMARK    1  A    between atoms: C_1  and  C_8 
REMARK    2  A    between atoms: C_1  and  C_12 
REMARK    3  A    between atoms: C_8  and  C_9 
REMARK    4  A    between atoms: C_12  and  C_13 
ROOT
HETATM    1  C   LIG     1      88.947  83.079  91.372  1.00  0.00     0.020 C 
HETATM    2  C   LIG     1      89.339  81.769  92.121  1.00  0.00     0.001 C 
HETATM    3  C   LIG     1      89.627  80.561  91.210  1.00  0.00     0.000 C 
HETATM    4  C   LIG     1      90.055  83.336  90.305  1.00  0.00     0.001 C 
HETATM    5  C   LIG     1      90.695  80.894  90.162  1.00  0.00     0.000 C 
HETATM    6  C   LIG     1      90.311  82.146  89.356  1.00  0.00     0.000 C 
HETATM    7  C   LIG     1      91.384  82.487  88.312  1.00  0.00     0.000 C 
ENDROOT
BRANCH   1   8
HETATM    8  C   LIG     1      87.516  82.864  90.758  1.00  0.00     0.098 C 
BRANCH   8   9
HETATM    9  C   LIG     1      86.307  83.214  91.640  1.00  0.00     0.185 C 
HETATM   10  O   LIG     1      85.960  82.367  92.490  1.00  0.00    -0.647 OA
HETATM   11  O   LIG     1      85.696  84.278  91.393  1.00  0.00    -0.647 OA
ENDBRANCH   8   9
ENDBRANCH   1   8
BRANCH   1  12
HETATM   12  C   LIG     1      88.946  84.194  92.477  1.00  0.00     0.098 C 
BRANCH  12  13
HETATM   13  C   LIG     1      89.287  85.628  92.042  1.00  0.00     0.185 C 
HETATM   14  O   LIG     1      90.375  86.110  92.426  1.00  0.00    -0.647 OA
HETATM   15  O   LIG     1      88.409  86.250  91.404  1.00  0.00    -0.647 OA
ENDBRANCH  12  13
ENDBRANCH   1  12
TORSDOF 4
ENDMDL
MODEL 2
REMARK VINA RESULT:      -0.0      2.081      2.970
REMARK  4 active torsions:
REMARK  status: ('A' for Active; 'I' for Inactive)
REMARK    1  A    between atoms: C_1  and  C_8 
REMARK    2  A    between atoms: C_1  and  C_12 
REMARK    3  A    between atoms: C_8  and  C_9 
REMARK    4  A    between atoms: C_12  and  C_13 
ROOT
HETATM    1  C   LIG     1      88.947  83.079  91.372  1.00  0.00     0.020 C 
HETATM    2  C   LIG     1      88.365  81.843  92.124  1.00  0.00     0.001 C 
HETATM    3  C   LIG     1      86.985  81.371  91.627  1.00  0.00     0.000 C 
HETATM    4  C   LIG     1      88.898  82.744  89.850  1.00  0.00     0.001 C 
HETATM    5  C   LIG     1      86.998  81.098  90.119  1.00  0.00     0.000 C 
HETATM    6  C   LIG     1      87.505  82.321  89.337  1.00  0.00     0.000 C 
HETATM    7  C   LIG     1      87.527  82.046  87.827  1.00  0.00     0.000 C 
ENDROOT
BRANCH   1   8
HETATM    8  C   LIG     1      88.081  84.328  91.772  1.00  0.00     0.098 C 
BRANCH   8   9
HETATM    9  C   LIG     1      88.505  85.111  93.026  1.00  0.00     0.185 C 
HETATM   10  O   LIG     1      88.159  84.642  94.131  1.00  0.00    -0.647 OA
HETATM   11  O   LIG     1      89.087  86.206  92.858  1.00  0.00    -0.647 OA
ENDBRANCH   8   9
ENDBRANCH   1   8
BRANCH   1  12
HETATM   12  C   LIG     1      90.426  83.206  91.883  1.00  0.00     0.098 C 
BRANCH  12  13
HETATM   13  C   LIG     1      91.463  83.809  90.923  1.00  0.00     0.185 C 
HETATM   14  O   LIG     1      92.339  83.047  90.458  1.00  0.00    -0.647 OA
HETATM   15  O   LIG     1      91.413  85.045  90.739  1.00  0.00    -0.647 OA
ENDBRANCH  12  13
ENDBRANCH   1  12
TORSDOF 4
ENDMDL
MODEL 3
REMARK VINA RESULT:       0.0      4.179      5.515
REMARK  4 active torsions:
REMARK  status: ('A' for Active; 'I' for Inactive)
REMARK    1  A    between atoms: C_1  and  C_8 
REMARK    2  A    between atoms: C_1  and  C_12 
REMARK    3  A    between atoms: C_8  and  C_9 
REMARK    4  A    between atoms: C_12  and  C_13 
ROOT
HETATM    1  C   LIG     1      90.678  87.025  92.555  1.00  0.00     0.020 C 
HETATM    2  C   LIG     1      91.514  86.662  91.290  1.00  0.00     0.001 C 
HETATM    3  C   LIG     1      90.689  86.439  90.008  1.00  0.00     0.000 C 
HETATM    4  C   LIG     1      89.769  88.231  92.164  1.00  0.00     0.001 C 
HETATM    5  C   LIG     1      89.791  87.643  89.705  1.00  0.00     0.000 C 
HETATM    6  C   LIG     1      88.902  87.991  90.909  1.00  0.00     0.000 C 
HETATM    7  C   LIG     1      88.008  89.203  90.610  1.00  0.00     0.000 C 
ENDROOT
BRANCH   1   8
HETATM    8  C   LIG     1      89.875  85.741  92.978  1.00  0.00     0.098 C 
BRANCH   8   9
HETATM    9  C   LIG     1      90.568  84.755  93.933  1.00  0.00     0.185 C 
HETATM   10  O   LIG     1      91.387  83.958  93.429  1.00  0.00    -0.647 OA
HETATM   11  O   LIG     1      90.206  84.755  95.131  1.00  0.00    -0.647 OA
ENDBRANCH   8   9
ENDBRANCH   1   8
BRANCH   1  12
HETATM   12  C   LIG     1      91.736  87.434  93.639  1.00  0.00     0.098 C 
BRANCH  12  13
HETATM   13  C   LIG     1      91.311  88.461  94.700  1.00  0.00     0.185 C 
HETATM   14  O   LIG     1      91.828  89.599  94.651  1.00  0.00    -0.647 OA
HETATM   15  O   LIG     1      90.538  88.060  95.597  1.00  0.00    -0.647 OA
ENDBRANCH  12  13
ENDBRANCH   1  12
TORSDOF 4
ENDMDL
MODEL 4
REMARK VINA RESULT:       0.0      9.626     11.937
REMARK  4 active torsions:
REMARK  status: ('A' for Active; 'I' for Inactive)
REMARK    1  A    between atoms: C_1  and  C_8 
REMARK    2  A    between atoms: C_1  and  C_12 
REMARK    3  A    between atoms: C_8  and  C_9 
REMARK    4  A    between atoms: C_12  and  C_13 
ROOT
HETATM    1  C   LIG     1      84.349  93.437  89.246  1.00  0.00     0.020 C 
HETATM    2  C   LIG     1      83.014  94.192  89.526  1.00  0.00     0.001 C 
HETATM    3  C   LIG     1      83.041  95.698  89.206  1.00  0.00     0.000 C 
HETATM    4  C   LIG     1      84.753  93.768  87.776  1.00  0.00     0.001 C 
HETATM    5  C   LIG     1      83.483  95.954  87.761  1.00  0.00     0.000 C 
HETATM    6  C   LIG     1      84.831  95.279  87.465  1.00  0.00     0.000 C 
HETATM    7  C   LIG     1      85.272  95.526  86.015  1.00  0.00     0.000 C 
ENDROOT
BRANCH   1   8
HETATM    8  C   LIG     1      85.399  93.915  90.313  1.00  0.00     0.098 C 
BRANCH   8   9
HETATM    9  C   LIG     1      85.452  93.152  91.646  1.00  0.00     0.185 C 
HETATM   10  O   LIG     1      84.593  93.447  92.504  1.00  0.00    -0.647 OA
HETATM   11  O   LIG     1      86.398  92.352  91.821  1.00  0.00    -0.647 OA
ENDBRANCH   8   9
ENDBRANCH   1   8
BRANCH   1  12
HETATM   12  C   LIG     1      83.999  91.916  89.413  1.00  0.00     0.098 C 
BRANCH  12  13
HETATM   13  C   LIG     1      84.802  90.903  88.582  1.00  0.00     0.185 C 
HETATM   14  O   LIG     1      84.208  90.307  87.657  1.00  0.00    -0.647 OA
HETATM   15  O   LIG     1      85.977  90.678  88.945  1.00  0.00    -0.647 OA
ENDBRANCH  12  13
ENDBRANCH   1  12
TORSDOF 4
ENDMDL
MODEL 5
REMARK VINA RESULT:       0.0      8.530      9.846
REMARK  4 active torsions:
REMARK  status: ('A' for Active; 'I' for Inactive)
REMARK    1  A    between atoms: C_1  and  C_8 
REMARK    2  A    between atoms: C_1  and  C_12 
REMARK    3  A    between atoms: C_8  and  C_9 
REMARK    4  A    between atoms: C_12  and  C_13 
ROOT
HETATM    1  C   LIG     1      88.606  92.456  90.387  1.00  0.00     0.020 C 
HETATM    2  C   LIG     1      89.139  91.032  90.044  1.00  0.00     0.001 C 
HETATM    3  C   LIG     1      90.462  91.006  89.257  1.00  0.00     0.000 C 
HETATM    4  C   LIG     1      89.776  93.219  91.082  1.00  0.00     0.001 C 
HETATM    5  C   LIG     1      91.555  91.805  89.975  1.00  0.00     0.000 C 
HETATM    6  C   LIG     1      91.090  93.240  90.272  1.00  0.00     0.000 C 
HETATM    7  C   LIG     1      92.180  94.040  90.999  1.00  0.00     0.000 C 
ENDROOT
BRANCH   1   8
HETATM    8  C   LIG     1      88.128  93.121  89.045  1.00  0.00     0.098 C 
BRANCH   8   9
HETATM    9  C   LIG     1      86.674  92.873  88.611  1.00  0.00     0.185 C 
HETATM   10  O   LIG     1      86.428  91.786  88.046  1.00  0.00    -0.647 OA
HETATM   11  O   LIG     1      85.853  93.804  88.771  1.00  0.00    -0.647 OA
ENDBRANCH   8   9
ENDBRANCH   1   8
BRANCH   1  12
HETATM   12  C   LIG     1      87.412  92.217  91.377  1.00  0.00     0.098 C 
BRANCH  12  13
HETATM   13  C   LIG     1      87.117  93.309  92.417  1.00  0.00     0.185 C 
HETATM   14  O   LIG     1      87.360  93.053  93.617  1.00  0.00    -0.647 OA
HETATM   15  O   LIG     1      86.569  94.353  92.001  1.00  0.00    -0.647 OA
ENDBRANCH  12  13
ENDBRANCH   1  12
TORSDOF 4
ENDMDL
MODEL 6
REMARK VINA RESULT:       0.0      8.154     10.875
REMARK  4 active torsions:
REMARK  status: ('A' for Active; 'I' for Inactive)
REMARK    1  A    between atoms: C_1  and  C_8 
REMARK    2  A    between atoms: C_1  and  C_12 
REMARK    3  A    between atoms: C_8  and  C_9 
REMARK    4  A    between atoms: C_12  and  C_13 
ROOT
HETATM    1  C   LIG     1      92.710  92.209  94.793  1.00  0.00     0.020 C 
HETATM    2  C   LIG     1      94.081  91.951  94.098  1.00  0.00     0.001 C 
HETATM    3  C   LIG     1      94.251  92.629  92.725  1.00  0.00     0.000 C 
HETATM    4  C   LIG     1      92.500  93.754  94.815  1.00  0.00     0.001 C 
HETATM    5  C   LIG     1      93.993  94.137  92.812  1.00  0.00     0.000 C 
HETATM    6  C   LIG     1      92.618  94.431  93.433  1.00  0.00     0.000 C 
HETATM    7  C   LIG     1      92.362  95.942  93.528  1.00  0.00     0.000 C 
ENDROOT
BRANCH   1   8
HETATM    8  C   LIG     1      91.611  91.434  93.978  1.00  0.00     0.098 C 
BRANCH   8   9
HETATM    9  C   LIG     1      91.336  89.974  94.371  1.00  0.00     0.185 C 
HETATM   10  O   LIG     1      92.127  89.110  93.935  1.00  0.00    -0.647 OA
HETATM   11  O   LIG     1      90.296  89.733  95.023  1.00  0.00    -0.647 OA
ENDBRANCH   8   9
ENDBRANCH   1   8
BRANCH   1  12
HETATM   12  C   LIG     1      92.874  91.632  96.244  1.00  0.00     0.098 C 
BRANCH  12  13
HETATM   13  C   LIG     1      92.058  92.289  97.368  1.00  0.00     0.185 C 
HETATM   14  O   LIG     1      92.678  92.958  98.224  1.00  0.00    -0.647 OA
HETATM   15  O   LIG     1      90.834  92.036  97.401  1.00  0.00    -0.647 OA
ENDBRANCH  12  13
ENDBRANCH   1  12
TORSDOF 4
ENDMDL
MODEL 7
REMARK VINA RESULT:       0.0      4.200      5.566
REMARK  4 active torsions:
REMARK  status: ('A' for Active; 'I' for Inactive)
REMARK    1  A    between atoms: C_1  and  C_8 
REMARK    2  A    between atoms: C_1  and  C_12 
REMARK    3  A    between atoms: C_8  and  C_9 
REMARK    4  A    between atoms: C_12  and  C_13 
ROOT
HETATM    1  C   LIG     1      90.338  88.117  91.906  1.00  0.00     0.020 C 
HETATM    2  C   LIG     1      91.363  87.508  92.911  1.00  0.00     0.001 C 
HETATM    3  C   LIG     1      91.133  86.024  93.255  1.00  0.00     0.000 C 
HETATM    4  C   LIG     1      90.308  87.172  90.666  1.00  0.00     0.001 C 
HETATM    5  C   LIG     1      91.075  85.160  91.990  1.00  0.00     0.000 C 
HETATM    6  C   LIG     1      90.025  85.692  91.001  1.00  0.00     0.000 C 
HETATM    7  C   LIG     1      89.972  84.833  89.730  1.00  0.00     0.000 C 
ENDROOT
BRANCH   1   8
HETATM    8  C   LIG     1      88.956  88.230  92.648  1.00  0.00     0.098 C 
BRANCH   8   9
HETATM    9  C   LIG     1      88.681  89.518  93.440  1.00  0.00     0.185 C 
HETATM   10  O   LIG     1      89.188  89.604  94.578  1.00  0.00    -0.647 OA
HETATM   11  O   LIG     1      87.900  90.356  92.934  1.00  0.00    -0.647 OA
ENDBRANCH   8   9
ENDBRANCH   1   8
BRANCH   1  12
HETATM   12  C   LIG     1      90.918  89.528  91.538  1.00  0.00     0.098 C 
BRANCH  12  13
HETATM   13  C   LIG     1      90.598  90.088  90.143  1.00  0.00     0.185 C 
HETATM   14  O   LIG     1      91.534  90.167  89.317  1.00  0.00    -0.647 OA
HETATM   15  O   LIG     1      89.436  90.512  89.956  1.00  0.00    -0.647 OA
ENDBRANCH  12  13
ENDBRANCH   1  12
TORSDOF 4
ENDMDL
MODEL 8
REMARK VINA RESULT:       0.0      3.221      5.516
REMARK  4 active torsions:
REMARK  status: ('A' for Active; 'I' for Inactive)
REMARK    1  A    between atoms: C_1  and  C_8 
REMARK    2  A    between atoms: C_1  and  C_12 
REMARK    3  A    between atoms: C_8  and  C_9 
REMARK    4  A    between atoms: C_12  and  C_13 
ROOT
HETATM    1  C   LIG     1      86.466  85.959  91.013  1.00  0.00     0.020 C 
HETATM    2  C   LIG     1      85.426  86.823  90.237  1.00  0.00     0.001 C 
HETATM    3  C   LIG     1      84.104  87.076  90.986  1.00  0.00     0.000 C 
HETATM    4  C   LIG     1      86.644  86.619  92.415  1.00  0.00     0.001 C 
HETATM    5  C   LIG     1      84.354  87.688  92.368  1.00  0.00     0.000 C 
HETATM    6  C   LIG     1      85.325  86.827  93.191  1.00  0.00     0.000 C 
HETATM    7  C   LIG     1      85.584  87.443  94.572  1.00  0.00     0.000 C 
ENDROOT
BRANCH   1   8
HETATM    8  C   LIG     1      85.912  84.489  91.073  1.00  0.00     0.098 C 
BRANCH   8   9
HETATM    9  C   LIG     1      86.264  83.551  89.907  1.00  0.00     0.185 C 
HETATM   10  O   LIG     1      85.583  83.660  88.865  1.00  0.00    -0.647 OA
HETATM   11  O   LIG     1      87.145  82.684  90.104  1.00  0.00    -0.647 OA
ENDBRANCH   8   9
ENDBRANCH   1   8
BRANCH   1  12
HETATM   12  C   LIG     1      87.784  86.050  90.166  1.00  0.00     0.098 C 
BRANCH  12  13
HETATM   13  C   LIG     1      89.122  85.936  90.914  1.00  0.00     0.185 C 
HETATM   14  O   LIG     1      89.833  86.961  90.998  1.00  0.00    -0.647 OA
HETATM   15  O   LIG     1      89.451  84.797  91.314  1.00  0.00    -0.647 OA
ENDBRANCH  12  13
ENDBRANCH   1  12
TORSDOF 4
ENDMDL
MODEL 9
REMARK VINA RESULT:       0.0      8.413      9.665
REMARK  4 active torsions:
REMARK  status: ('A' for Active; 'I' for Inactive)
REMARK    1  A    between atoms: C_1  and  C_8 
REMARK    2  A    between atoms: C_1  and  C_12 
REMARK    3  A    between atoms: C_8  and  C_9 
REMARK    4  A    between atoms: C_12  and  C_13 
ROOT
HETATM    1  C   LIG     1      85.702  91.821  92.346  1.00  0.00     0.020 C 
HETATM    2  C   LIG     1      85.583  93.358  92.585  1.00  0.00     0.001 C 
HETATM    3  C   LIG     1      86.926  94.105  92.681  1.00  0.00     0.000 C 
HETATM    4  C   LIG     1      86.628  91.629  91.107  1.00  0.00     0.001 C 
HETATM    5  C   LIG     1      87.801  93.842  91.451  1.00  0.00     0.000 C 
HETATM    6  C   LIG     1      87.997  92.334  91.221  1.00  0.00     0.000 C 
HETATM    7  C   LIG     1      88.866  92.067  89.984  1.00  0.00     0.000 C 
ENDROOT
BRANCH   1   8
HETATM    8  C   LIG     1      86.269  91.178  93.664  1.00  0.00     0.098 C 
BRANCH   8   9
HETATM    9  C   LIG     1      85.254  90.756  94.739  1.00  0.00     0.185 C 
HETATM   10  O   LIG     1      84.810  91.654  95.485  1.00  0.00    -0.647 OA
HETATM   11  O   LIG     1      85.005  89.535  94.855  1.00  0.00    -0.647 OA
ENDBRANCH   8   9
ENDBRANCH   1   8
BRANCH   1  12
HETATM   12  C   LIG     1      84.238  91.342  92.047  1.00  0.00     0.098 C 
BRANCH  12  13
HETATM   13  C   LIG     1      84.060  90.123  91.127  1.00  0.00     0.185 C 
HETATM   14  O   LIG     1      83.575  90.316  89.991  1.00  0.00    -0.647 OA
HETATM   15  O   LIG     1      84.334  89.004  91.612  1.00  0.00    -0.647 OA
ENDBRANCH  12  13
ENDBRANCH   1  12
TORSDOF 4
ENDMDL
