MODEL 1
REMARK VINA RESULT:       0.0      0.000      0.000
REMARK  6 active torsions:
REMARK  status: ('A' for Active; 'I' for Inactive)
REMARK    1  A    between atoms: C_1  and  C_11 
REMARK    2  A    between atoms: C_1  and  C_20 
REMARK    3  A    between atoms: C_1  and  C_2 
REMARK    4  A    between atoms: C_5  and  N_8 
REMARK    5  A    between atoms: C_14  and  N_17 
REMARK    6  A    between atoms: C_23  and  N_26 
ROOT
HETATM    1  C   LIG     1      93.100  87.626  91.693  1.00  0.00     0.067 C 
ENDROOT
BRANCH   1   2
HETATM    2  C   LIG     1      94.331  87.505  90.795  1.00  0.00    -0.014 A 
HETATM    3  C   LIG     1      94.168  87.476  89.396  1.00  0.00    -0.002 A 
HETATM    4  C   LIG     1      95.284  87.361  88.546  1.00  0.00     0.017 A 
HETATM    5  C   LIG     1      96.597  87.268  89.070  1.00  0.00     0.056 A 
HETATM    6  C   LIG     1      96.749  87.294  90.479  1.00  0.00     0.017 A 
HETATM    7  C   LIG     1      95.633  87.411  91.330  1.00  0.00    -0.002 A 
BRANCH   5   8
HETATM    8  N   LIG     1      97.720  87.151  88.215  1.00  0.00    -0.344 N 
HETATM    9  C   LIG     1      99.054  87.479  88.706  1.00  0.00     0.126 C 
HETATM   10  C   LIG     1      97.553  86.702  86.838  1.00  0.00     0.126 C 
ENDBRANCH   5   8
ENDBRANCH   1   2
BRANCH   1  11
HETATM   11  C   LIG     1      93.257  86.927  93.044  1.00  0.00    -0.014 A 
HETATM   12  C   LIG     1      93.573  87.645  94.218  1.00  0.00    -0.002 A 
HETATM   13  C   LIG     1      93.707  86.977  95.450  1.00  0.00     0.017 A 
HETATM   14  C   LIG     1      93.526  85.575  95.548  1.00  0.00     0.056 A 
HETATM   15  C   LIG     1      93.205  84.867  94.363  1.00  0.00     0.017 A 
HETATM   16  C   LIG     1      93.072  85.533  93.130  1.00  0.00    -0.002 A 
BRANCH  14  17
HETATM   17  N   LIG     1      93.660  84.904  96.787  1.00  0.00    -0.344 N 
HETATM   18  C   LIG     1      94.357  85.542  97.898  1.00  0.00     0.126 C 
HETATM   19  C   LIG     1      93.099  83.569  96.965  1.00  0.00     0.126 C 
ENDBRANCH  14  17
ENDBRANCH   1  11
BRANCH   1  20
HETATM   20  C   LIG     1      92.560  89.051  91.801  1.00  0.00    -0.014 A 
HETATM   21  C   LIG     1      91.174  89.255  91.973  1.00  0.00    -0.002 A 
HETATM   22  C   LIG     1      90.649  90.558  92.070  1.00  0.00     0.023 A 
HETATM   23  C   LIG     1      91.499  91.686  91.997  1.00  0.00     0.127 A 
HETATM   24  C   LIG     1      92.887  91.478  91.822  1.00  0.00     0.023 A 
HETATM   25  C   LIG     1      93.412  90.176  91.725  1.00  0.00    -0.002 A 
BRANCH  23  26
HETATM   26  N   LIG     1      90.949  93.052  92.098  1.00  0.00    -0.114 N 
HETATM   27  O   LIG     1      89.730  93.187  92.128  1.00  0.00    -0.532 OA
HETATM   28  O   LIG     1      91.735  93.992  92.149  1.00  0.00    -0.532 OA
ENDBRANCH  23  26
ENDBRANCH   1  20
TORSDOF 6
ENDMDL
MODEL 2
REMARK VINA RESULT:       0.0      5.306      8.490
REMARK  6 active torsions:
REMARK  status: ('A' for Active; 'I' for Inactive)
REMARK    1  A    between atoms: C_1  and  C_11 
REMARK    2  A    between atoms: C_1  and  C_20 
REMARK    3  A    between atoms: C_1  and  C_2 
REMARK    4  A    between atoms: C_5  and  N_8 
REMARK    5  A    between atoms: C_14  and  N_17 
REMARK    6  A    between atoms: C_23  and  N_26 
ROOT
HETATM    1  C   LIG     1      90.627  90.811  91.662  1.00  0.00     0.067 C 
ENDROOT
BRANCH   1   2
HETATM    2  C   LIG     1      89.689  90.478  92.822  1.00  0.00    -0.014 A 
HETATM    3  C   LIG     1      90.193  90.452  94.137  1.00  0.00    -0.002 A 
HETATM    4  C   LIG     1      89.351  90.144  95.222  1.00  0.00     0.017 A 
HETATM    5  C   LIG     1      87.980  89.849  95.025  1.00  0.00     0.056 A 
HETATM    6  C   LIG     1      87.484  89.874  93.696  1.00  0.00     0.017 A 
HETATM    7  C   LIG     1      88.325  90.184  92.611  1.00  0.00    -0.002 A 
BRANCH   5   8
HETATM    8  N   LIG     1      87.133  89.538  96.116  1.00  0.00    -0.344 N 
HETATM    9  C   LIG     1      85.684  89.605  95.963  1.00  0.00     0.126 C 
HETATM   10  C   LIG     1      87.702  89.148  97.401  1.00  0.00     0.126 C 
ENDBRANCH   5   8
ENDBRANCH   1   2
BRANCH   1  11
HETATM   11  C   LIG     1      90.263  90.104  90.356  1.00  0.00    -0.014 A 
HETATM   12  C   LIG     1      89.560  90.765  89.326  1.00  0.00    -0.002 A 
HETATM   13  C   LIG     1      89.242  90.091  88.131  1.00  0.00     0.017 A 
HETATM   14  C   LIG     1      89.617  88.739  87.929  1.00  0.00     0.056 A 
HETATM   15  C   LIG     1      90.325  88.088  88.970  1.00  0.00     0.017 A 
HETATM   16  C   LIG     1      90.643  88.761  90.165  1.00  0.00    -0.002 A 
BRANCH  14  17
HETATM   17  N   LIG     1      89.297  88.063  86.728  1.00  0.00    -0.344 N 
HETATM   18  C   LIG     1      89.921  86.782  86.415  1.00  0.00     0.126 C 
HETATM   19  C   LIG     1      88.337  88.639  85.793  1.00  0.00     0.126 C 
ENDBRANCH  14  17
ENDBRANCH   1  11
BRANCH   1  20
HETATM   20  C   LIG     1      90.885  92.308  91.495  1.00  0.00    -0.014 A 
HETATM   21  C   LIG     1      92.131  92.745  90.999  1.00  0.00    -0.002 A 
HETATM   22  C   LIG     1      92.397  94.119  90.840  1.00  0.00     0.023 A 
HETATM   23  C   LIG     1      91.421  95.086  91.175  1.00  0.00     0.127 A 
HETATM   24  C   LIG     1      90.174  94.644  91.674  1.00  0.00     0.023 A 
HETATM   25  C   LIG     1      89.908  93.272  91.833  1.00  0.00    -0.002 A 
BRANCH  23  26
HETATM   26  N   LIG     1      91.699  96.526  91.009  1.00  0.00    -0.114 N 
HETATM   27  O   LIG     1      92.775  96.857  90.520  1.00  0.00    -0.532 OA
HETATM   28  O   LIG     1      90.843  97.328  91.366  1.00  0.00    -0.532 OA
ENDBRANCH  23  26
ENDBRANCH   1  20
TORSDOF 6
ENDMDL
MODEL 3
REMARK VINA RESULT:       0.0      6.654      9.630
REMARK  6 active torsions:
REMARK  status: ('A' for Active; 'I' for Inactive)
REMARK    1  A    between atoms: C_1  and  C_11 
REMARK    2  A    between atoms: C_1  and  C_20 
REMARK    3  A    between atoms: C_1  and  C_2 
REMARK    4  A    between atoms: C_5  and  N_8 
REMARK    5  A    between atoms: C_14  and  N_17 
REMARK    6  A    between atoms: C_23  and  N_26 
ROOT
HETATM    1  C   LIG     1      91.022  93.377  88.302  1.00  0.00     0.067 C 
ENDROOT
BRANCH   1   2
HETATM    2  C   LIG     1      90.461  94.415  87.330  1.00  0.00    -0.014 A 
HETATM    3  C   LIG     1      91.119  95.652  87.180  1.00  0.00    -0.002 A 
HETATM    4  C   LIG     1      90.620  96.627  86.295  1.00  0.00     0.017 A 
HETATM    5  C   LIG     1      89.447  96.396  85.535  1.00  0.00     0.056 A 
HETATM    6  C   LIG     1      88.791  95.149  85.696  1.00  0.00     0.017 A 
HETATM    7  C   LIG     1      89.290  94.173  86.580  1.00  0.00    -0.002 A 
BRANCH   5   8
HETATM    8  N   LIG     1      88.946  97.376  84.645  1.00  0.00    -0.344 N 
HETATM    9  C   LIG     1      87.791  97.083  83.805  1.00  0.00     0.126 C 
HETATM   10  C   LIG     1      89.579  98.687  84.563  1.00  0.00     0.126 C 
ENDBRANCH   5   8
ENDBRANCH   1   2
BRANCH   1  11
HETATM   11  C   LIG     1      89.948  92.502  88.949  1.00  0.00    -0.014 A 
HETATM   12  C   LIG     1      89.680  91.195  88.488  1.00  0.00    -0.002 A 
HETATM   13  C   LIG     1      88.689  90.408  89.106  1.00  0.00     0.017 A 
HETATM   14  C   LIG     1      87.940  90.901  90.204  1.00  0.00     0.056 A 
HETATM   15  C   LIG     1      88.222  92.213  90.659  1.00  0.00     0.017 A 
HETATM   16  C   LIG     1      89.211  93.001  90.042  1.00  0.00    -0.002 A 
BRANCH  14  17
HETATM   17  N   LIG     1      86.945  90.109  90.825  1.00  0.00    -0.344 N 
HETATM   18  C   LIG     1      86.368  88.968  90.124  1.00  0.00     0.126 C 
HETATM   19  C   LIG     1      86.489  90.426  92.174  1.00  0.00     0.126 C 
ENDBRANCH  14  17
ENDBRANCH   1  11
BRANCH   1  20
HETATM   20  C   LIG     1      92.199  92.583  87.736  1.00  0.00    -0.014 A 
HETATM   21  C   LIG     1      93.214  92.135  88.607  1.00  0.00    -0.002 A 
HETATM   22  C   LIG     1      94.312  91.406  88.112  1.00  0.00     0.023 A 
HETATM   23  C   LIG     1      94.419  91.111  86.733  1.00  0.00     0.127 A 
HETATM   24  C   LIG     1      93.401  91.564  85.863  1.00  0.00     0.023 A 
HETATM   25  C   LIG     1      92.303  92.292  86.357  1.00  0.00    -0.002 A 
BRANCH  23  26
HETATM   26  N   LIG     1      95.571  90.347  86.213  1.00  0.00    -0.114 N 
HETATM   27  O   LIG     1      95.516  89.924  85.063  1.00  0.00    -0.532 OA
HETATM   28  O   LIG     1      96.532  90.171  86.954  1.00  0.00    -0.532 OA
ENDBRANCH  23  26
ENDBRANCH   1  20
TORSDOF 6
ENDMDL
MODEL 4
REMARK VINA RESULT:       0.0      3.763      7.856
REMARK  6 active torsions:
REMARK  status: ('A' for Active; 'I' for Inactive)
REMARK    1  A    between atoms: C_1  and  C_11 
REMARK    2  A    between atoms: C_1  and  C_20 
REMARK    3  A    between atoms: C_1  and  C_2 
REMARK    4  A    between atoms: C_5  and  N_8 
REMARK    5  A    between atoms: C_14  and  N_17 
REMARK    6  A    between atoms: C_23  and  N_26 
ROOT
HETATM    1  C   LIG     1      92.430  89.754  94.029  1.00  0.00     0.067 C 
ENDROOT
BRANCH   1   2
HETATM    2  C   LIG     1      92.444  88.744  95.177  1.00  0.00    -0.014 A 
HETATM    3  C   LIG     1      92.603  87.374  94.893  1.00  0.00    -0.002 A 
HETATM    4  C   LIG     1      92.614  86.423  95.932  1.00  0.00     0.017 A 
HETATM    5  C   LIG     1      92.464  86.814  97.285  1.00  0.00     0.056 A 
HETATM    6  C   LIG     1      92.303  88.196  97.559  1.00  0.00     0.017 A 
HETATM    7  C   LIG     1      92.292  89.148  96.521  1.00  0.00    -0.002 A 
BRANCH   5   8
HETATM    8  N   LIG     1      92.476  85.858  98.329  1.00  0.00    -0.344 N 
HETATM    9  C   LIG     1      92.638  84.441  98.026  1.00  0.00     0.126 C 
HETATM   10  C   LIG     1      92.327  86.283  99.717  1.00  0.00     0.126 C 
ENDBRANCH   5   8
ENDBRANCH   1   2
BRANCH   1  11
HETATM   11  C   LIG     1      91.545  90.972  94.295  1.00  0.00    -0.014 A 
HETATM   12  C   LIG     1      92.089  92.206  94.712  1.00  0.00    -0.002 A 
HETATM   13  C   LIG     1      91.251  93.314  94.945  1.00  0.00     0.017 A 
HETATM   14  C   LIG     1      89.848  93.223  94.766  1.00  0.00     0.056 A 
HETATM   15  C   LIG     1      89.316  91.978  94.344  1.00  0.00     0.017 A 
HETATM   16  C   LIG     1      90.152  90.871  94.112  1.00  0.00    -0.002 A 
BRANCH  14  17
HETATM   17  N   LIG     1      89.006  94.336  95.000  1.00  0.00    -0.344 N 
HETATM   18  C   LIG     1      87.565  94.224  94.807  1.00  0.00     0.126 C 
HETATM   19  C   LIG     1      89.573  95.606  95.440  1.00  0.00     0.126 C 
ENDBRANCH  14  17
ENDBRANCH   1  11
BRANCH   1  20
HETATM   20  C   LIG     1      93.824  90.112  93.513  1.00  0.00    -0.014 A 
HETATM   21  C   LIG     1      93.996  90.432  92.150  1.00  0.00    -0.002 A 
HETATM   22  C   LIG     1      95.270  90.760  91.647  1.00  0.00     0.023 A 
HETATM   23  C   LIG     1      96.399  90.774  92.498  1.00  0.00     0.127 A 
HETATM   24  C   LIG     1      96.223  90.450  93.862  1.00  0.00     0.023 A 
HETATM   25  C   LIG     1      94.951  90.122  94.366  1.00  0.00    -0.002 A 
BRANCH  23  26
HETATM   26  N   LIG     1      97.735  91.118  91.971  1.00  0.00    -0.114 N 
HETATM   27  O   LIG     1      98.694  91.061  92.734  1.00  0.00    -0.532 OA
HETATM   28  O   LIG     1      97.828  91.444  90.792  1.00  0.00    -0.532 OA
ENDBRANCH  23  26
ENDBRANCH   1  20
TORSDOF 6
ENDMDL
MODEL 5
REMARK VINA RESULT:       0.0      8.406     11.512
REMARK  6 active torsions:
REMARK  status: ('A' for Active; 'I' for Inactive)
REMARK    1  A    between atoms: C_1  and  C_11 
REMARK    2  A    between atoms: C_1  and  C_20 
REMARK    3  A    between atoms: C_1  and  C_2 
REMARK    4  A    between atoms: C_5  and  N_8 
REMARK    5  A    between atoms: C_14  and  N_17 
REMARK    6  A    between atoms: C_23  and  N_26 
ROOT
HETATM    1  C   LIG     1      84.238  87.473  89.998  1.00  0.00     0.067 C 
ENDROOT
BRANCH   1   2
HETATM    2  C   LIG     1      84.162  86.298  90.972  1.00  0.00    -0.014 A 
HETATM    3  C   LIG     1      82.914  85.912  91.498  1.00  0.00    -0.002 A 
HETATM    4  C   LIG     1      82.817  84.836  92.401  1.00  0.00     0.017 A 
HETATM    5  C   LIG     1      83.967  84.115  92.808  1.00  0.00     0.056 A 
HETATM    6  C   LIG     1      85.219  84.515  92.275  1.00  0.00     0.017 A 
HETATM    7  C   LIG     1      85.316  85.590  91.371  1.00  0.00    -0.002 A 
BRANCH   5   8
HETATM    8  N   LIG     1      83.871  83.034  93.716  1.00  0.00    -0.344 N 
HETATM    9  C   LIG     1      85.067  82.303  94.118  1.00  0.00     0.126 C 
HETATM   10  C   LIG     1      82.574  82.642  94.258  1.00  0.00     0.126 C 
ENDBRANCH   5   8
ENDBRANCH   1   2
BRANCH   1  11
HETATM   11  C   LIG     1      85.543  88.265  90.092  1.00  0.00    -0.014 A 
HETATM   12  C   LIG     1      86.592  88.077  89.167  1.00  0.00    -0.002 A 
HETATM   13  C   LIG     1      87.782  88.823  89.274  1.00  0.00     0.017 A 
HETATM   14  C   LIG     1      87.957  89.780  90.305  1.00  0.00     0.056 A 
HETATM   15  C   LIG     1      86.894  89.961  91.225  1.00  0.00     0.017 A 
HETATM   16  C   LIG     1      85.705  89.215  91.119  1.00  0.00    -0.002 A 
BRANCH  14  17
HETATM   17  N   LIG     1      89.153  90.529  90.412  1.00  0.00    -0.344 N 
HETATM   18  C   LIG     1      90.236  90.327  89.457  1.00  0.00     0.126 C 
HETATM   19  C   LIG     1      89.311  91.513  91.477  1.00  0.00     0.126 C 
ENDBRANCH  14  17
ENDBRANCH   1  11
BRANCH   1  20
HETATM   20  C   LIG     1      83.848  87.106  88.566  1.00  0.00    -0.014 A 
HETATM   21  C   LIG     1      83.225  88.073  87.749  1.00  0.00    -0.002 A 
HETATM   22  C   LIG     1      82.850  87.761  86.428  1.00  0.00     0.023 A 
HETATM   23  C   LIG     1      83.090  86.472  85.897  1.00  0.00     0.127 A 
HETATM   24  C   LIG     1      83.711  85.505  86.719  1.00  0.00     0.023 A 
HETATM   25  C   LIG     1      84.086  85.817  88.039  1.00  0.00    -0.002 A 
BRANCH  23  26
HETATM   26  N   LIG     1      82.697  86.143  84.512  1.00  0.00    -0.114 N 
HETATM   27  O   LIG     1      82.211  87.032  83.819  1.00  0.00    -0.532 OA
HETATM   28  O   LIG     1      82.874  84.997  84.115  1.00  0.00    -0.532 OA
ENDBRANCH  23  26
ENDBRANCH   1  20
TORSDOF 6
ENDMDL
MODEL 6
REMARK VINA RESULT:       0.0      5.098      9.424
REMARK  6 active torsions:
REMARK  status: ('A' for Active; 'I' for Inactive)
REMARK    1  A    between atoms: C_1  and  C_11 
REMARK    2  A    between atoms: C_1  and  C_20 
REMARK    3  A    between atoms: C_1  and  C_2 
REMARK    4  A    between atoms: C_5  and  N_8 
REMARK    5  A    between atoms: C_14  and  N_17 
REMARK    6  A    between atoms: C_23  and  N_26 
ROOT
HETATM    1  C   LIG     1      88.494  92.130  93.950  1.00  0.00     0.067 C 
ENDROOT
BRANCH   1   2
HETATM    2  C   LIG     1      87.245  91.328  93.581  1.00  0.00    -0.014 A 
HETATM    3  C   LIG     1      86.415  90.828  94.603  1.00  0.00    -0.002 A 
HETATM    4  C   LIG     1      85.262  90.083  94.290  1.00  0.00     0.017 A 
HETATM    5  C   LIG     1      84.906  89.814  92.945  1.00  0.00     0.056 A 
HETATM    6  C   LIG     1      85.751  90.320  91.925  1.00  0.00     0.017 A 
HETATM    7  C   LIG     1      86.903  91.066  92.237  1.00  0.00    -0.002 A 
BRANCH   5   8
HETATM    8  N   LIG     1      83.747  89.065  92.631  1.00  0.00    -0.344 N 
HETATM    9  C   LIG     1      82.896  88.546  93.696  1.00  0.00     0.126 C 
HETATM   10  C   LIG     1      83.393  88.807  91.240  1.00  0.00     0.126 C 
ENDBRANCH   5   8
ENDBRANCH   1   2
BRANCH   1  11
HETATM   11  C   LIG     1      89.645  91.962  92.958  1.00  0.00    -0.014 A 
HETATM   12  C   LIG     1      89.922  92.933  91.972  1.00  0.00    -0.002 A 
HETATM   13  C   LIG     1      90.992  92.755  91.074  1.00  0.00     0.017 A 
HETATM   14  C   LIG     1      91.818  91.605  91.136  1.00  0.00     0.056 A 
HETATM   15  C   LIG     1      91.531  90.639  92.133  1.00  0.00     0.017 A 
HETATM   16  C   LIG     1      90.461  90.816  93.030  1.00  0.00    -0.002 A 
BRANCH  14  17
HETATM   17  N   LIG     1      92.894  91.427  90.233  1.00  0.00    -0.344 N 
HETATM   18  C   LIG     1      93.734  90.238  90.313  1.00  0.00     0.126 C 
HETATM   19  C   LIG     1      93.170  92.432  89.212  1.00  0.00     0.126 C 
ENDBRANCH  14  17
ENDBRANCH   1  11
BRANCH   1  20
HETATM   20  C   LIG     1      88.202  93.587  94.306  1.00  0.00    -0.014 A 
HETATM   21  C   LIG     1      89.010  94.242  95.258  1.00  0.00    -0.002 A 
HETATM   22  C   LIG     1      88.760  95.583  95.609  1.00  0.00     0.023 A 
HETATM   23  C   LIG     1      87.694  96.297  95.014  1.00  0.00     0.127 A 
HETATM   24  C   LIG     1      86.884  95.637  94.062  1.00  0.00     0.023 A 
HETATM   25  C   LIG     1      87.134  94.297  93.711  1.00  0.00    -0.002 A 
BRANCH  23  26
HETATM   26  N   LIG     1      87.431  97.703  95.382  1.00  0.00    -0.114 N 
HETATM   27  O   LIG     1      88.196  98.250  96.170  1.00  0.00    -0.532 OA
HETATM   28  O   LIG     1      86.461  98.262  94.883  1.00  0.00    -0.532 OA
ENDBRANCH  23  26
ENDBRANCH   1  20
TORSDOF 6
ENDMDL
MODEL 7
REMARK VINA RESULT:       0.0      3.882      7.308
REMARK  6 active torsions:
REMARK  status: ('A' for Active; 'I' for Inactive)
REMARK    1  A    between atoms: C_1  and  C_11 
REMARK    2  A    between atoms: C_1  and  C_20 
REMARK    3  A    between atoms: C_1  and  C_2 
REMARK    4  A    between atoms: C_5  and  N_8 
REMARK    5  A    between atoms: C_14  and  N_17 
REMARK    6  A    between atoms: C_23  and  N_26 
ROOT
HETATM    1  C   LIG     1      91.603  91.960  89.924  1.00  0.00     0.067 C 
ENDROOT
BRANCH   1   2
HETATM    2  C   LIG     1      92.515  91.256  90.927  1.00  0.00    -0.014 A 
HETATM    3  C   LIG     1      93.393  92.019  91.722  1.00  0.00    -0.002 A 
HETATM    4  C   LIG     1      94.247  91.394  92.651  1.00  0.00     0.017 A 
HETATM    5  C   LIG     1      94.251  89.987  92.811  1.00  0.00     0.056 A 
HETATM    6  C   LIG     1      93.367  89.228  92.003  1.00  0.00     0.017 A 
HETATM    7  C   LIG     1      92.511  89.852  91.075  1.00  0.00    -0.002 A 
BRANCH   5   8
HETATM    8  N   LIG     1      95.110  89.359  93.744  1.00  0.00    -0.344 N 
HETATM    9  C   LIG     1      95.092  87.908  93.898  1.00  0.00     0.126 C 
HETATM   10  C   LIG     1      96.021  90.156  94.558  1.00  0.00     0.126 C 
ENDBRANCH   5   8
ENDBRANCH   1   2
BRANCH   1  11
HETATM   11  C   LIG     1      91.310  91.130  88.674  1.00  0.00    -0.014 A 
HETATM   12  C   LIG     1      90.099  90.421  88.521  1.00  0.00    -0.002 A 
HETATM   13  C   LIG     1      89.853  89.668  87.357  1.00  0.00     0.017 A 
HETATM   14  C   LIG     1      90.807  89.602  86.311  1.00  0.00     0.056 A 
HETATM   15  C   LIG     1      92.017  90.321  86.475  1.00  0.00     0.017 A 
HETATM   16  C   LIG     1      92.264  91.073  87.638  1.00  0.00    -0.002 A 
BRANCH  14  17
HETATM   17  N   LIG     1      90.558  88.845  85.141  1.00  0.00    -0.344 N 
HETATM   18  C   LIG     1      91.550  88.794  84.072  1.00  0.00     0.126 C 
HETATM   19  C   LIG     1      89.309  88.106  84.995  1.00  0.00     0.126 C 
ENDBRANCH  14  17
ENDBRANCH   1  11
BRANCH   1  20
HETATM   20  C   LIG     1      90.354  92.572  90.558  1.00  0.00    -0.014 A 
HETATM   21  C   LIG     1      89.801  93.747  90.005  1.00  0.00    -0.002 A 
HETATM   22  C   LIG     1      88.654  94.334  90.572  1.00  0.00     0.023 A 
HETATM   23  C   LIG     1      88.035  93.758  91.706  1.00  0.00     0.127 A 
HETATM   24  C   LIG     1      88.593  92.583  92.259  1.00  0.00     0.023 A 
HETATM   25  C   LIG     1      89.739  91.995  91.692  1.00  0.00    -0.002 A 
BRANCH  23  26
HETATM   26  N   LIG     1      86.833  94.374  92.302  1.00  0.00    -0.114 N 
HETATM   27  O   LIG     1      86.364  93.871  93.318  1.00  0.00    -0.532 OA
HETATM   28  O   LIG     1      86.355  95.363  91.755  1.00  0.00    -0.532 OA
ENDBRANCH  23  26
ENDBRANCH   1  20
TORSDOF 6
ENDMDL
MODEL 8
REMARK VINA RESULT:       0.0      4.491      8.253
REMARK  6 active torsions:
REMARK  status: ('A' for Active; 'I' for Inactive)
REMARK    1  A    between atoms: C_1  and  C_11 
REMARK    2  A    between atoms: C_1  and  C_20 
REMARK    3  A    between atoms: C_1  and  C_2 
REMARK    4  A    between atoms: C_5  and  N_8 
REMARK    5  A    between atoms: C_14  and  N_17 
REMARK    6  A    between atoms: C_23  and  N_26 
ROOT
HETATM    1  C   LIG     1      91.290  92.148  93.275  1.00  0.00     0.067 C 
ENDROOT
BRANCH   1   2
HETATM    2  C   LIG     1      91.512  93.565  92.746  1.00  0.00    -0.014 A 
HETATM    3  C   LIG     1      92.161  94.515  93.559  1.00  0.00    -0.002 A 
HETATM    4  C   LIG     1      92.373  95.828  93.098  1.00  0.00     0.017 A 
HETATM    5  C   LIG     1      91.941  96.231  91.811  1.00  0.00     0.056 A 
HETATM    6  C   LIG     1      91.286  95.268  91.002  1.00  0.00     0.017 A 
HETATM    7  C   LIG     1      91.074  93.954  91.463  1.00  0.00    -0.002 A 
BRANCH   5   8
HETATM    8  N   LIG     1      92.154  97.552  91.347  1.00  0.00    -0.344 N 
HETATM    9  C   LIG     1      92.404  98.632  92.294  1.00  0.00     0.126 C 
HETATM   10  C   LIG     1      92.127  97.842  89.918  1.00  0.00     0.126 C 
ENDBRANCH   5   8
ENDBRANCH   1   2
BRANCH   1  11
HETATM   11  C   LIG     1      90.017  91.488  92.744  1.00  0.00    -0.014 A 
HETATM   12  C   LIG     1      90.053  90.551  91.688  1.00  0.00    -0.002 A 
HETATM   13  C   LIG     1      88.867  89.954  91.221  1.00  0.00     0.017 A 
HETATM   14  C   LIG     1      87.610  90.272  91.796  1.00  0.00     0.056 A 
HETATM   15  C   LIG     1      87.589  91.211  92.857  1.00  0.00     0.017 A 
HETATM   16  C   LIG     1      88.774  91.809  93.324  1.00  0.00    -0.002 A 
BRANCH  14  17
HETATM   17  N   LIG     1      86.418  89.672  91.326  1.00  0.00    -0.344 N 
HETATM   18  C   LIG     1      85.138  89.988  91.951  1.00  0.00     0.126 C 
HETATM   19  C   LIG     1      86.458  88.733  90.210  1.00  0.00     0.126 C 
ENDBRANCH  14  17
ENDBRANCH   1  11
BRANCH   1  20
HETATM   20  C   LIG     1      92.528  91.257  93.175  1.00  0.00    -0.014 A 
HETATM   21  C   LIG     1      92.740  90.256  94.146  1.00  0.00    -0.002 A 
HETATM   22  C   LIG     1      93.875  89.424  94.081  1.00  0.00     0.023 A 
HETATM   23  C   LIG     1      94.823  89.579  93.043  1.00  0.00     0.127 A 
HETATM   24  C   LIG     1      94.609  90.585  92.074  1.00  0.00     0.023 A 
HETATM   25  C   LIG     1      93.475  91.416  92.138  1.00  0.00    -0.002 A 
BRANCH  23  26
HETATM   26  N   LIG     1      96.014  88.708  92.975  1.00  0.00    -0.114 N 
HETATM   27  O   LIG     1      96.837  88.917  92.089  1.00  0.00    -0.532 OA
HETATM   28  O   LIG     1      96.128  87.815  93.808  1.00  0.00    -0.532 OA
ENDBRANCH  23  26
ENDBRANCH   1  20
TORSDOF 6
ENDMDL
MODEL 9
REMARK VINA RESULT:       0.0      5.054      9.558
REMARK  6 active torsions:
REMARK  status: ('A' for Active; 'I' for Inactive)
REMARK    1  A    between atoms: C_1  and  C_11 
REMARK    2  A    between atoms: C_1  and  C_20 
REMARK    3  A    between atoms: C_1  and  C_2 
REMARK    4  A    between atoms: C_5  and  N_8 
REMARK    5  A    between atoms: C_14  and  N_17 
REMARK    6  A    between atoms: C_23  and  N_26 
ROOT
HETATM    1  C   LIG     1      89.200  86.050  93.452  1.00  0.00     0.067 C 
ENDROOT
BRANCH   1   2
HETATM    2  C   LIG     1      88.516  85.923  94.813  1.00  0.00    -0.014 A 
HETATM    3  C   LIG     1      87.950  84.689  95.192  1.00  0.00    -0.002 A 
HETATM    4  C   LIG     1      87.310  84.546  96.438  1.00  0.00     0.017 A 
HETATM    5  C   LIG     1      87.215  85.633  97.341  1.00  0.00     0.056 A 
HETATM    6  C   LIG     1      87.785  86.871  96.948  1.00  0.00     0.017 A 
HETATM    7  C   LIG     1      88.426  87.014  95.703  1.00  0.00    -0.002 A 
BRANCH   5   8
HETATM    8  N   LIG     1      86.571  85.490  98.594  1.00  0.00    -0.344 N 
HETATM    9  C   LIG     1      86.489  86.621  99.512  1.00  0.00     0.126 C 
HETATM   10  C   LIG     1      85.985  84.211  98.977  1.00  0.00     0.126 C 
ENDBRANCH   5   8
ENDBRANCH   1   2
BRANCH   1  11
HETATM   11  C   LIG     1      89.081  87.444  92.835  1.00  0.00    -0.014 A 
HETATM   12  C   LIG     1      90.140  88.375  92.897  1.00  0.00    -0.002 A 
HETATM   13  C   LIG     1      90.006  89.651  92.315  1.00  0.00     0.017 A 
HETATM   14  C   LIG     1      88.812  90.033  91.654  1.00  0.00     0.056 A 
HETATM   15  C   LIG     1      87.758  89.088  91.596  1.00  0.00     0.017 A 
HETATM   16  C   LIG     1      87.891  87.813  92.177  1.00  0.00    -0.002 A 
BRANCH  14  17
HETATM   17  N   LIG     1      88.678  91.315  91.069  1.00  0.00    -0.344 N 
HETATM   18  C   LIG     1      89.573  92.399  91.458  1.00  0.00     0.126 C 
HETATM   19  C   LIG     1      87.644  91.564  90.070  1.00  0.00     0.126 C 
ENDBRANCH  14  17
ENDBRANCH   1  11
BRANCH   1  20
HETATM   20  C   LIG     1      90.622  85.490  93.427  1.00  0.00    -0.014 A 
HETATM   21  C   LIG     1      91.119  84.917  92.238  1.00  0.00    -0.002 A 
HETATM   22  C   LIG     1      92.423  84.388  92.188  1.00  0.00     0.023 A 
HETATM   23  C   LIG     1      93.258  84.422  93.330  1.00  0.00     0.127 A 
HETATM   24  C   LIG     1      92.755  84.995  94.520  1.00  0.00     0.023 A 
HETATM   25  C   LIG     1      91.452  85.523  94.570  1.00  0.00    -0.002 A 
BRANCH  23  26
HETATM   26  N   LIG     1      94.626  83.868  93.279  1.00  0.00    -0.114 N 
HETATM   27  O   LIG     1      94.962  83.242  92.279  1.00  0.00    -0.532 OA
HETATM   28  O   LIG     1      95.366  84.058  94.238  1.00  0.00    -0.532 OA
ENDBRANCH  23  26
ENDBRANCH   1  20
TORSDOF 6
ENDMDL
