MODEL 1
REMARK VINA RESULT:      -0.0      0.000      0.000
REMARK  3 active torsions:
REMARK  status: ('A' for Active; 'I' for Inactive)
REMARK    1  A    between atoms: C_3  and  N_7 
REMARK    2  A    between atoms: C_5  and  S_15 
REMARK    3  A    between atoms: N_8  and  C_9 
ROOT
HETATM    1  C   LIG     1      83.782  88.146  92.030  1.00  0.00     0.022 A 
HETATM    2  C   LIG     1      83.471  88.605  93.324  1.00  0.00     0.015 A 
HETATM    3  C   LIG     1      84.340  89.026  91.079  1.00  0.00     0.103 A 
HETATM    4  C   LIG     1      84.556  90.382  91.420  1.00  0.00     0.022 A 
HETATM    5  C   LIG     1      83.713  89.951  93.666  1.00  0.00     0.104 A 
HETATM    6  C   LIG     1      84.247  90.843  92.714  1.00  0.00     0.015 A 
ENDROOT
BRANCH   3   7
HETATM    7  N   LIG     1      84.625  88.533  89.781  1.00  0.00    -0.148 NA
HETATM    8  N   LIG     1      85.798  88.258  89.421  1.00  0.00    -0.148 NA
BRANCH   8   9
HETATM    9  C   LIG     1      86.794  87.876  90.356  1.00  0.00     0.103 A 
HETATM   10  C   LIG     1      87.776  88.819  90.724  1.00  0.00     0.021 A 
HETATM   11  C   LIG     1      88.789  88.466  91.637  1.00  0.00     0.002 A 
HETATM   12  C   LIG     1      88.831  87.166  92.176  1.00  0.00     0.000 A 
HETATM   13  C   LIG     1      87.864  86.215  91.799  1.00  0.00     0.002 A 
HETATM   14  C   LIG     1      86.850  86.565  90.885  1.00  0.00     0.021 A 
ENDBRANCH   8   9
ENDBRANCH   3   7
BRANCH   5  15
HETATM   15  S   LIG     1      83.309  90.538  95.310  1.00  0.00     0.139 S 
HETATM   16  O   LIG     1      82.252  91.536  95.079  1.00  0.00    -0.591 OA
HETATM   17  O   LIG     1      84.577  91.095  95.807  1.00  0.00    -0.591 OA
HETATM   18  O   LIG     1      82.862  89.316  95.997  1.00  0.00    -0.591 OA
ENDBRANCH   5  15
TORSDOF 3
ENDMDL
MODEL 2
REMARK VINA RESULT:      -0.0      6.156      7.291
REMARK  3 active torsions:
REMARK  status: ('A' for Active; 'I' for Inactive)
REMARK    1  A    between atoms: C_3  and  N_7 
REMARK    2  A    between atoms: C_5  and  S_15 
REMARK    3  A    between atoms: N_8  and  C_9 
ROOT
HETATM    1  C   LIG     1      86.136  93.612  96.300  1.00  0.00     0.022 A 
HETATM    2  C   LIG     1      87.064  93.203  97.277  1.00  0.00     0.015 A 
HETATM    3  C   LIG     1      86.212  94.907  95.747  1.00  0.00     0.103 A 
HETATM    4  C   LIG     1      87.203  95.808  96.203  1.00  0.00     0.022 A 
HETATM    5  C   LIG     1      88.066  94.096  97.708  1.00  0.00     0.104 A 
HETATM    6  C   LIG     1      88.133  95.401  97.179  1.00  0.00     0.015 A 
ENDROOT
BRANCH   3   7
HETATM    7  N   LIG     1      85.251  95.291  94.778  1.00  0.00    -0.148 NA
HETATM    8  N   LIG     1      85.529  95.331  93.552  1.00  0.00    -0.148 NA
BRANCH   8   9
HETATM    9  C   LIG     1      86.541  94.512  92.990  1.00  0.00     0.103 A 
HETATM   10  C   LIG     1      87.786  95.094  92.675  1.00  0.00     0.021 A 
HETATM   11  C   LIG     1      88.808  94.313  92.100  1.00  0.00     0.002 A 
HETATM   12  C   LIG     1      88.584  92.950  91.827  1.00  0.00     0.000 A 
HETATM   13  C   LIG     1      87.337  92.367  92.123  1.00  0.00     0.002 A 
HETATM   14  C   LIG     1      86.314  93.147  92.698  1.00  0.00     0.021 A 
ENDBRANCH   8   9
ENDBRANCH   3   7
BRANCH   5  15
HETATM   15  S   LIG     1      89.241  93.579  98.959  1.00  0.00     0.139 S 
HETATM   16  O   LIG     1      88.958  94.468 100.097  1.00  0.00    -0.591 OA
HETATM   17  O   LIG     1      90.550  93.797  98.323  1.00  0.00    -0.591 OA
HETATM   18  O   LIG     1      88.890  92.167  99.178  1.00  0.00    -0.591 OA
ENDBRANCH   5  15
TORSDOF 3
ENDMDL
MODEL 3
REMARK VINA RESULT:      -0.0      5.965      7.014
REMARK  3 active torsions:
REMARK  status: ('A' for Active; 'I' for Inactive)
REMARK    1  A    between atoms: C_3  and  N_7 
REMARK    2  A    between atoms: C_5  and  S_15 
REMARK    3  A    between atoms: N_8  and  C_9 
ROOT
HETATM    1  C   LIG     1      84.555  87.284  88.883  1.00  0.00     0.022 A 
HETATM    2  C   LIG     1      85.904  87.661  88.735  1.00  0.00     0.015 A 
HETATM    3  C   LIG     1      83.525  88.192  88.558  1.00  0.00     0.103 A 
HETATM    4  C   LIG     1      83.852  89.495  88.114  1.00  0.00     0.022 A 
HETATM    5  C   LIG     1      86.223  88.952  88.267  1.00  0.00     0.104 A 
HETATM    6  C   LIG     1      85.200  89.874  87.965  1.00  0.00     0.015 A 
ENDROOT
BRANCH   3   7
HETATM    7  N   LIG     1      82.179  87.784  88.736  1.00  0.00    -0.148 NA
HETATM    8  N   LIG     1      81.458  87.445  87.763  1.00  0.00    -0.148 NA
BRANCH   8   9
HETATM    9  C   LIG     1      82.014  86.909  86.574  1.00  0.00     0.103 A 
HETATM   10  C   LIG     1      82.109  87.738  85.437  1.00  0.00     0.021 A 
HETATM   11  C   LIG     1      82.641  87.232  84.235  1.00  0.00     0.002 A 
HETATM   12  C   LIG     1      83.068  85.892  84.161  1.00  0.00     0.000 A 
HETATM   13  C   LIG     1      82.960  85.055  85.288  1.00  0.00     0.002 A 
HETATM   14  C   LIG     1      82.428  85.559  86.491  1.00  0.00     0.021 A 
ENDBRANCH   8   9
ENDBRANCH   3   7
BRANCH   5  15
HETATM   15  S   LIG     1      87.939  89.435  88.087  1.00  0.00     0.139 S 
HETATM   16  O   LIG     1      88.102  90.527  89.060  1.00  0.00    -0.591 OA
HETATM   17  O   LIG     1      88.043  89.850  86.679  1.00  0.00    -0.591 OA
HETATM   18  O   LIG     1      88.667  88.200  88.420  1.00  0.00    -0.591 OA
ENDBRANCH   5  15
TORSDOF 3
ENDMDL
MODEL 4
REMARK VINA RESULT:      -0.0      7.120      8.342
REMARK  3 active torsions:
REMARK  status: ('A' for Active; 'I' for Inactive)
REMARK    1  A    between atoms: C_3  and  N_7 
REMARK    2  A    between atoms: C_5  and  S_15 
REMARK    3  A    between atoms: N_8  and  C_9 
ROOT
HETATM    1  C   LIG     1      88.472  90.270  87.181  1.00  0.00     0.022 A 
HETATM    2  C   LIG     1      87.284  91.009  87.338  1.00  0.00     0.015 A 
HETATM    3  C   LIG     1      88.749  89.622  85.959  1.00  0.00     0.103 A 
HETATM    4  C   LIG     1      87.811  89.689  84.901  1.00  0.00     0.022 A 
HETATM    5  C   LIG     1      86.366  91.095  86.271  1.00  0.00     0.104 A 
HETATM    6  C   LIG     1      86.623  90.429  85.055  1.00  0.00     0.015 A 
ENDROOT
BRANCH   3   7
HETATM    7  N   LIG     1      89.946  88.872  85.842  1.00  0.00    -0.148 NA
HETATM    8  N   LIG     1      90.945  89.315  85.219  1.00  0.00    -0.148 NA
BRANCH   8   9
HETATM    9  C   LIG     1      91.183  90.706  85.086  1.00  0.00     0.103 A 
HETATM   10  C   LIG     1      90.896  91.329  83.854  1.00  0.00     0.021 A 
HETATM   11  C   LIG     1      91.137  92.706  83.683  1.00  0.00     0.002 A 
HETATM   12  C   LIG     1      91.678  93.464  84.739  1.00  0.00     0.000 A 
HETATM   13  C   LIG     1      91.984  92.844  85.966  1.00  0.00     0.002 A 
HETATM   14  C   LIG     1      91.744  91.467  86.139  1.00  0.00     0.021 A 
ENDBRANCH   8   9
ENDBRANCH   3   7
BRANCH   5  15
HETATM   15  S   LIG     1      84.850  92.028  86.474  1.00  0.00     0.139 S 
HETATM   16  O   LIG     1      83.792  91.010  86.363  1.00  0.00    -0.591 OA
HETATM   17  O   LIG     1      84.883  92.998  85.368  1.00  0.00    -0.591 OA
HETATM   18  O   LIG     1      85.001  92.616  87.813  1.00  0.00    -0.591 OA
ENDBRANCH   5  15
TORSDOF 3
ENDMDL
MODEL 5
REMARK VINA RESULT:      -0.0      6.420      8.103
REMARK  3 active torsions:
REMARK  status: ('A' for Active; 'I' for Inactive)
REMARK    1  A    between atoms: C_3  and  N_7 
REMARK    2  A    between atoms: C_5  and  S_15 
REMARK    3  A    between atoms: N_8  and  C_9 
ROOT
HETATM    1  C   LIG     1      90.910  91.138  93.795  1.00  0.00     0.022 A 
HETATM    2  C   LIG     1      91.817  90.062  93.742  1.00  0.00     0.015 A 
HETATM    3  C   LIG     1      91.067  92.241  92.930  1.00  0.00     0.103 A 
HETATM    4  C   LIG     1      92.158  92.278  92.030  1.00  0.00     0.022 A 
HETATM    5  C   LIG     1      92.887  90.093  92.825  1.00  0.00     0.104 A 
HETATM    6  C   LIG     1      93.065  91.203  91.974  1.00  0.00     0.015 A 
ENDROOT
BRANCH   3   7
HETATM    7  N   LIG     1      90.145  93.315  93.023  1.00  0.00    -0.148 NA
HETATM    8  N   LIG     1      89.223  93.469  92.182  1.00  0.00    -0.148 NA
BRANCH   8   9
HETATM    9  C   LIG     1      88.680  92.374  91.463  1.00  0.00     0.103 A 
HETATM   10  C   LIG     1      89.055  92.195  90.115  1.00  0.00     0.021 A 
HETATM   11  C   LIG     1      88.522  91.127  89.367  1.00  0.00     0.002 A 
HETATM   12  C   LIG     1      87.601  90.242  89.960  1.00  0.00     0.000 A 
HETATM   13  C   LIG     1      87.209  90.425  91.300  1.00  0.00     0.002 A 
HETATM   14  C   LIG     1      87.741  91.493  92.050  1.00  0.00     0.021 A 
ENDBRANCH   8   9
ENDBRANCH   3   7
BRANCH   5  15
HETATM   15  S   LIG     1      94.046  88.727  92.763  1.00  0.00     0.139 S 
HETATM   16  O   LIG     1      95.324  89.331  93.174  1.00  0.00    -0.591 OA
HETATM   17  O   LIG     1      94.000  88.289  91.359  1.00  0.00    -0.591 OA
HETATM   18  O   LIG     1      93.480  87.770  93.726  1.00  0.00    -0.591 OA
ENDBRANCH   5  15
TORSDOF 3
ENDMDL
MODEL 6
REMARK VINA RESULT:      -0.0      4.695      6.033
REMARK  3 active torsions:
REMARK  status: ('A' for Active; 'I' for Inactive)
REMARK    1  A    between atoms: C_3  and  N_7 
REMARK    2  A    between atoms: C_5  and  S_15 
REMARK    3  A    between atoms: N_8  and  C_9 
ROOT
HETATM    1  C   LIG     1      83.338  87.816  95.775  1.00  0.00     0.022 A 
HETATM    2  C   LIG     1      84.124  88.728  96.507  1.00  0.00     0.015 A 
HETATM    3  C   LIG     1      83.947  86.912  94.881  1.00  0.00     0.103 A 
HETATM    4  C   LIG     1      85.349  86.946  94.695  1.00  0.00     0.022 A 
HETATM    5  C   LIG     1      85.523  88.739  96.337  1.00  0.00     0.104 A 
HETATM    6  C   LIG     1      86.138  87.855  95.426  1.00  0.00     0.015 A 
ENDROOT
BRANCH   3   7
HETATM    7  N   LIG     1      83.123  86.021  94.148  1.00  0.00    -0.148 NA
HETATM    8  N   LIG     1      83.020  84.807  94.462  1.00  0.00    -0.148 NA
BRANCH   8   9
HETATM    9  C   LIG     1      83.217  84.363  95.795  1.00  0.00     0.103 A 
HETATM   10  C   LIG     1      84.429  83.721  96.123  1.00  0.00     0.021 A 
HETATM   11  C   LIG     1      84.650  83.253  97.433  1.00  0.00     0.002 A 
HETATM   12  C   LIG     1      83.655  83.413  98.417  1.00  0.00     0.000 A 
HETATM   13  C   LIG     1      82.436  84.037  98.090  1.00  0.00     0.002 A 
HETATM   14  C   LIG     1      82.213  84.506  96.781  1.00  0.00     0.021 A 
ENDBRANCH   8   9
ENDBRANCH   3   7
BRANCH   5  15
HETATM   15  S   LIG     1      86.523  89.904  97.260  1.00  0.00     0.139 S 
HETATM   16  O   LIG     1      87.104  90.771  96.222  1.00  0.00    -0.591 OA
HETATM   17  O   LIG     1      87.497  89.054  97.963  1.00  0.00    -0.591 OA
HETATM   18  O   LIG     1      85.539  90.564  98.133  1.00  0.00    -0.591 OA
ENDBRANCH   5  15
TORSDOF 3
ENDMDL
MODEL 7
REMARK VINA RESULT:      -0.0      5.618      7.284
REMARK  3 active torsions:
REMARK  status: ('A' for Active; 'I' for Inactive)
REMARK    1  A    between atoms: C_3  and  N_7 
REMARK    2  A    between atoms: C_5  and  S_15 
REMARK    3  A    between atoms: N_8  and  C_9 
ROOT
HETATM    1  C   LIG     1      89.425  84.672  92.635  1.00  0.00     0.022 A 
HETATM    2  C   LIG     1      90.738  84.837  93.117  1.00  0.00     0.015 A 
HETATM    3  C   LIG     1      88.333  84.688  93.529  1.00  0.00     0.103 A 
HETATM    4  C   LIG     1      88.565  84.838  94.917  1.00  0.00     0.022 A 
HETATM    5  C   LIG     1      90.959  85.013  94.498  1.00  0.00     0.104 A 
HETATM    6  C   LIG     1      89.876  85.005  95.401  1.00  0.00     0.015 A 
ENDROOT
BRANCH   3   7
HETATM    7  N   LIG     1      87.027  84.501  93.010  1.00  0.00    -0.148 NA
HETATM    8  N   LIG     1      86.231  85.464  92.863  1.00  0.00    -0.148 NA
BRANCH   8   9
HETATM    9  C   LIG     1      86.694  86.788  92.652  1.00  0.00     0.103 A 
HETATM   10  C   LIG     1      86.647  87.701  93.725  1.00  0.00     0.021 A 
HETATM   11  C   LIG     1      87.083  89.029  93.545  1.00  0.00     0.002 A 
HETATM   12  C   LIG     1      87.556  89.451  92.287  1.00  0.00     0.000 A 
HETATM   13  C   LIG     1      87.589  88.548  91.207  1.00  0.00     0.002 A 
HETATM   14  C   LIG     1      87.153  87.221  91.385  1.00  0.00     0.021 A 
ENDBRANCH   8   9
ENDBRANCH   3   7
BRANCH   5  15
HETATM   15  S   LIG     1      92.631  85.214  95.113  1.00  0.00     0.139 S 
HETATM   16  O   LIG     1      92.841  84.027  95.958  1.00  0.00    -0.591 OA
HETATM   17  O   LIG     1      92.584  86.488  95.848  1.00  0.00    -0.591 OA
HETATM   18  O   LIG     1      93.434  85.243  93.882  1.00  0.00    -0.591 OA
ENDBRANCH   5  15
TORSDOF 3
ENDMDL
MODEL 8
REMARK VINA RESULT:      -0.0      4.149      5.832
REMARK  3 active torsions:
REMARK  status: ('A' for Active; 'I' for Inactive)
REMARK    1  A    between atoms: C_3  and  N_7 
REMARK    2  A    between atoms: C_5  and  S_15 
REMARK    3  A    between atoms: N_8  and  C_9 
ROOT
HETATM    1  C   LIG     1      89.320  86.830  92.905  1.00  0.00     0.022 A 
HETATM    2  C   LIG     1      90.322  87.591  93.537  1.00  0.00     0.015 A 
HETATM    3  C   LIG     1      88.068  86.648  93.528  1.00  0.00     0.103 A 
HETATM    4  C   LIG     1      87.833  87.205  94.807  1.00  0.00     0.022 A 
HETATM    5  C   LIG     1      90.073  88.166  94.799  1.00  0.00     0.104 A 
HETATM    6  C   LIG     1      88.832  87.968  95.441  1.00  0.00     0.015 A 
ENDROOT
BRANCH   3   7
HETATM    7  N   LIG     1      87.089  85.862  92.870  1.00  0.00    -0.148 NA
HETATM    8  N   LIG     1      86.113  86.385  92.272  1.00  0.00    -0.148 NA
BRANCH   8   9
HETATM    9  C   LIG     1      86.188  87.692  91.726  1.00  0.00     0.103 A 
HETATM   10  C   LIG     1      85.557  88.750  92.412  1.00  0.00     0.021 A 
HETATM   11  C   LIG     1      85.598  90.057  91.889  1.00  0.00     0.002 A 
HETATM   12  C   LIG     1      86.259  90.309  90.671  1.00  0.00     0.000 A 
HETATM   13  C   LIG     1      86.876  89.254  89.973  1.00  0.00     0.002 A 
HETATM   14  C   LIG     1      86.837  87.946  90.494  1.00  0.00     0.021 A 
ENDBRANCH   8   9
ENDBRANCH   3   7
BRANCH   5  15
HETATM   15  S   LIG     1      91.351  89.127  95.608  1.00  0.00     0.139 S 
HETATM   16  O   LIG     1      91.663  88.350  96.819  1.00  0.00    -0.591 OA
HETATM   17  O   LIG     1      90.707  90.425  95.863  1.00  0.00    -0.591 OA
HETATM   18  O   LIG     1      92.425  89.159  94.604  1.00  0.00    -0.591 OA
ENDBRANCH   5  15
TORSDOF 3
ENDMDL
MODEL 9
REMARK VINA RESULT:      -0.0      9.340     10.419
REMARK  3 active torsions:
REMARK  status: ('A' for Active; 'I' for Inactive)
REMARK    1  A    between atoms: C_3  and  N_7 
REMARK    2  A    between atoms: C_5  and  S_15 
REMARK    3  A    between atoms: N_8  and  C_9 
ROOT
HETATM    1  C   LIG     1      90.757  91.802  86.221  1.00  0.00     0.022 A 
HETATM    2  C   LIG     1      91.360  93.029  85.884  1.00  0.00     0.015 A 
HETATM    3  C   LIG     1      89.379  91.603  85.996  1.00  0.00     0.103 A 
HETATM    4  C   LIG     1      88.596  92.653  85.462  1.00  0.00     0.022 A 
HETATM    5  C   LIG     1      90.579  94.063  85.329  1.00  0.00     0.104 A 
HETATM    6  C   LIG     1      89.196  93.881  85.124  1.00  0.00     0.015 A 
ENDROOT
BRANCH   3   7
HETATM    7  N   LIG     1      88.802  90.360  86.363  1.00  0.00    -0.148 NA
HETATM    8  N   LIG     1      88.522  89.484  85.505  1.00  0.00    -0.148 NA
BRANCH   8   9
HETATM    9  C   LIG     1      89.223  89.393  84.276  1.00  0.00     0.103 A 
HETATM   10  C   LIG     1      88.601  89.872  83.104  1.00  0.00     0.021 A 
HETATM   11  C   LIG     1      89.262  89.782  81.864  1.00  0.00     0.002 A 
HETATM   12  C   LIG     1      90.543  89.201  81.788  1.00  0.00     0.000 A 
HETATM   13  C   LIG     1      91.162  88.705  82.951  1.00  0.00     0.002 A 
HETATM   14  C   LIG     1      90.502  88.794  84.193  1.00  0.00     0.021 A 
ENDBRANCH   8   9
ENDBRANCH   3   7
BRANCH   5  15
HETATM   15  S   LIG     1      91.344  95.629  84.909  1.00  0.00     0.139 S 
HETATM   16  O   LIG     1      90.691  96.593  85.809  1.00  0.00    -0.591 OA
HETATM   17  O   LIG     1      91.023  95.807  83.484  1.00  0.00    -0.591 OA
HETATM   18  O   LIG     1      92.767  95.388  85.194  1.00  0.00    -0.591 OA
ENDBRANCH   5  15
TORSDOF 3
ENDMDL
