MODEL 1
REMARK VINA RESULT:      -0.0      0.000      0.000
REMARK  5 active torsions:
REMARK  status: ('A' for Active; 'I' for Inactive)
REMARK    1  A    between atoms: C_3  and  C_25 
REMARK    2  A    between atoms: C_17  and  O_32 
REMARK    3  A    between atoms: C_25  and  C_27 
REMARK    4  A    between atoms: C_27  and  C_28 
REMARK    5  A    between atoms: C_28  and  C_29 
ROOT
HETATM    1  O   LIG     1      90.722  90.388  91.429  1.00  0.00    -0.296 OA
HETATM    2  O   LIG     1      91.324  89.777  97.333  1.00  0.00    -0.296 OA
HETATM    3  C   LIG     1      89.021  86.534  94.001  1.00  0.00     0.000 C 
HETATM    4  C   LIG     1      88.755  86.571  95.532  1.00  0.00     0.000 C 
HETATM    5  C   LIG     1      90.165  87.585  93.818  1.00  0.00     0.007 C 
HETATM    6  C   LIG     1      90.242  88.245  92.406  1.00  0.00     0.065 C 
HETATM    7  C   LIG     1      90.886  89.645  92.393  1.00  0.00     0.151 C 
HETATM    8  C   LIG     1      89.455  87.822  96.097  1.00  0.00     0.000 C 
HETATM    9  C   LIG     1      89.765  88.686  94.862  1.00  0.00     0.007 C 
HETATM   10  C   LIG     1      91.698  90.046  93.645  1.00  0.00     0.065 C 
HETATM   11  C   LIG     1      90.844  89.837  94.951  1.00  0.00     0.065 C 
HETATM   12  C   LIG     1      92.506  91.401  93.652  1.00  0.00     0.007 C 
HETATM   13  C   LIG     1      91.499  92.585  93.506  1.00  0.00     0.003 C 
HETATM   14  C   LIG     1      91.979  93.922  94.051  1.00  0.00     0.029 C 
HETATM   15  C   LIG     1      91.749  89.895  96.186  1.00  0.00     0.151 C 
HETATM   16  C   LIG     1      93.414  91.440  94.971  1.00  0.00     0.010 C 
HETATM   17  C   LIG     1      92.389  93.759  95.513  1.00  0.00     0.111 C 
HETATM   18  C   LIG     1      93.211  90.213  95.917  1.00  0.00     0.065 C 
HETATM   19  C   LIG     1      93.634  92.847  95.676  1.00  0.00     0.025 C 
HETATM   20  C   LIG     1      93.926  92.705  97.192  1.00  0.00     0.002 C 
HETATM   21  C   LIG     1      94.897  93.528  95.078  1.00  0.00     0.002 C 
HETATM   22  C   LIG     1      93.468  91.444  92.433  1.00  0.00     0.000 C 
HETATM   23  C   LIG     1      91.514  86.872  94.165  1.00  0.00     0.000 C 
HETATM   24  C   LIG     1      88.422  89.420  94.532  1.00  0.00     0.000 C 
ENDROOT
BRANCH   3  25
HETATM   25  C   LIG     1      89.197  85.081  93.453  1.00  0.00     0.001 C 
HETATM   26  C   LIG     1      88.716  84.051  94.501  1.00  0.00     0.000 C 
BRANCH  25  27
HETATM   27  C   LIG     1      88.465  84.845  92.105  1.00  0.00     0.011 C 
BRANCH  27  28
HETATM   28  C   LIG     1      89.305  85.032  90.818  1.00  0.00     0.098 C 
BRANCH  28  29
HETATM   29  C   LIG     1      90.734  84.489  90.940  1.00  0.00     0.185 C 
HETATM   30  O   LIG     1      91.677  85.312  90.961  1.00  0.00    -0.647 OA
HETATM   31  O   LIG     1      90.860  83.247  90.992  1.00  0.00    -0.647 OA
ENDBRANCH  28  29
ENDBRANCH  27  28
ENDBRANCH  25  27
ENDBRANCH   3  25
BRANCH  17  32
HETATM   32  O   LIG     1      92.599  95.051  96.052  1.00  0.00    -0.385 OA
HETATM   33  H   LIG     1      93.527  95.228  96.049  1.00  0.00     0.210 HD
ENDBRANCH  17  32
TORSDOF 5
ENDMDL
MODEL 2
REMARK VINA RESULT:      -0.0      8.525     11.081
REMARK  5 active torsions:
REMARK  status: ('A' for Active; 'I' for Inactive)
REMARK    1  A    between atoms: C_3  and  C_25 
REMARK    2  A    between atoms: C_17  and  O_32 
REMARK    3  A    between atoms: C_25  and  C_27 
REMARK    4  A    between atoms: C_27  and  C_28 
REMARK    5  A    between atoms: C_28  and  C_29 
ROOT
HETATM    1  O   LIG     1      94.724  93.925  86.191  1.00  0.00    -0.296 OA
HETATM    2  O   LIG     1      90.225  93.416  82.307  1.00  0.00    -0.296 OA
HETATM    3  C   LIG     1      91.375  90.301  86.294  1.00  0.00     0.000 C 
HETATM    4  C   LIG     1      90.512  89.892  85.067  1.00  0.00     0.000 C 
HETATM    5  C   LIG     1      91.657  91.817  86.035  1.00  0.00     0.007 C 
HETATM    6  C   LIG     1      92.958  92.375  86.693  1.00  0.00     0.065 C 
HETATM    7  C   LIG     1      93.560  93.597  85.975  1.00  0.00     0.151 C 
HETATM    8  C   LIG     1      90.620  91.020  84.024  1.00  0.00     0.000 C 
HETATM    9  C   LIG     1      91.832  91.854  84.476  1.00  0.00     0.007 C 
HETATM   10  C   LIG     1      92.642  94.336  84.975  1.00  0.00     0.065 C 
HETATM   11  C   LIG     1      92.026  93.326  83.937  1.00  0.00     0.065 C 
HETATM   12  C   LIG     1      93.133  95.678  84.307  1.00  0.00     0.007 C 
HETATM   13  C   LIG     1      94.399  95.374  83.446  1.00  0.00     0.003 C 
HETATM   14  C   LIG     1      94.668  96.354  82.313  1.00  0.00     0.029 C 
HETATM   15  C   LIG     1      90.866  93.987  83.186  1.00  0.00     0.151 C 
HETATM   16  C   LIG     1      91.905  96.323  83.507  1.00  0.00     0.010 C 
HETATM   17  C   LIG     1      93.435  96.450  81.418  1.00  0.00     0.111 C 
HETATM   18  C   LIG     1      90.610  95.448  83.523  1.00  0.00     0.065 C 
HETATM   19  C   LIG     1      92.224  97.087  82.151  1.00  0.00     0.025 C 
HETATM   20  C   LIG     1      91.019  97.083  81.176  1.00  0.00     0.002 C 
HETATM   21  C   LIG     1      92.496  98.586  82.460  1.00  0.00     0.002 C 
HETATM   22  C   LIG     1      93.543  96.693  85.410  1.00  0.00     0.000 C 
HETATM   23  C   LIG     1      90.406  92.616  86.531  1.00  0.00     0.000 C 
HETATM   24  C   LIG     1      93.083  91.068  83.956  1.00  0.00     0.000 C 
ENDROOT
BRANCH   3  25
HETATM   25  C   LIG     1      90.754  89.840  87.651  1.00  0.00     0.001 C 
HETATM   26  C   LIG     1      89.634  88.803  87.404  1.00  0.00     0.000 C 
BRANCH  25  27
HETATM   27  C   LIG     1      91.803  89.261  88.637  1.00  0.00     0.011 C 
BRANCH  27  28
HETATM   28  C   LIG     1      92.399  90.245  89.672  1.00  0.00     0.098 C 
BRANCH  28  29
HETATM   29  C   LIG     1      91.367  91.223  90.249  1.00  0.00     0.185 C 
HETATM   30  O   LIG     1      91.459  92.430  89.933  1.00  0.00    -0.647 OA
HETATM   31  O   LIG     1      90.505  90.741  91.015  1.00  0.00    -0.647 OA
ENDBRANCH  28  29
ENDBRANCH  27  28
ENDBRANCH  25  27
ENDBRANCH   3  25
BRANCH  17  32
HETATM   32  O   LIG     1      93.796  97.173  80.256  1.00  0.00    -0.385 OA
HETATM   33  H   LIG     1      93.392  96.759  79.509  1.00  0.00     0.210 HD
ENDBRANCH  17  32
TORSDOF 5
ENDMDL
MODEL 3
REMARK VINA RESULT:      -0.0      4.250      7.463
REMARK  5 active torsions:
REMARK  status: ('A' for Active; 'I' for Inactive)
REMARK    1  A    between atoms: C_3  and  C_25 
REMARK    2  A    between atoms: C_17  and  O_32 
REMARK    3  A    between atoms: C_25  and  C_27 
REMARK    4  A    between atoms: C_27  and  C_28 
REMARK    5  A    between atoms: C_28  and  C_29 
ROOT
HETATM    1  O   LIG     1      95.080  91.354  91.005  1.00  0.00    -0.296 OA
HETATM    2  O   LIG     1      89.913  94.310  91.400  1.00  0.00    -0.296 OA
HETATM    3  C   LIG     1      92.301  91.538  95.080  1.00  0.00     0.000 C 
HETATM    4  C   LIG     1      90.787  91.887  95.073  1.00  0.00     0.000 C 
HETATM    5  C   LIG     1      92.844  92.303  93.828  1.00  0.00     0.007 C 
HETATM    6  C   LIG     1      94.132  91.701  93.186  1.00  0.00     0.065 C 
HETATM    7  C   LIG     1      94.303  92.016  91.688  1.00  0.00     0.151 C 
HETATM    8  C   LIG     1      90.456  92.506  93.702  1.00  0.00     0.000 C 
HETATM    9  C   LIG     1      91.659  92.144  92.812  1.00  0.00     0.007 C 
HETATM   10  C   LIG     1      93.436  93.161  91.117  1.00  0.00     0.065 C 
HETATM   11  C   LIG     1      91.919  92.938  91.471  1.00  0.00     0.065 C 
HETATM   12  C   LIG     1      93.655  93.641  89.630  1.00  0.00     0.007 C 
HETATM   13  C   LIG     1      93.327  92.456  88.669  1.00  0.00     0.003 C 
HETATM   14  C   LIG     1      92.926  92.853  87.256  1.00  0.00     0.029 C 
HETATM   15  C   LIG     1      91.126  94.224  91.218  1.00  0.00     0.151 C 
HETATM   16  C   LIG     1      92.787  94.967  89.395  1.00  0.00     0.010 C 
HETATM   17  C   LIG     1      91.747  93.822  87.314  1.00  0.00     0.111 C 
HETATM   18  C   LIG     1      91.916  95.380  90.625  1.00  0.00     0.065 C 
HETATM   19  C   LIG     1      92.133  95.178  87.963  1.00  0.00     0.025 C 
HETATM   20  C   LIG     1      90.858  96.058  88.023  1.00  0.00     0.002 C 
HETATM   21  C   LIG     1      93.126  95.958  87.056  1.00  0.00     0.002 C 
HETATM   22  C   LIG     1      95.145  94.026  89.417  1.00  0.00     0.000 C 
HETATM   23  C   LIG     1      93.088  93.787  94.258  1.00  0.00     0.000 C 
HETATM   24  C   LIG     1      91.400  90.667  92.360  1.00  0.00     0.000 C 
ENDROOT
BRANCH   3  25
HETATM   25  C   LIG     1      92.966  91.753  96.478  1.00  0.00     0.001 C 
HETATM   26  C   LIG     1      91.881  91.919  97.567  1.00  0.00     0.000 C 
BRANCH  25  27
HETATM   27  C   LIG     1      93.941  90.612  96.872  1.00  0.00     0.011 C 
BRANCH  27  28
HETATM   28  C   LIG     1      95.437  90.834  96.543  1.00  0.00     0.098 C 
BRANCH  28  29
HETATM   29  C   LIG     1      95.909  92.272  96.794  1.00  0.00     0.185 C 
HETATM   30  O   LIG     1      96.199  92.977  95.802  1.00  0.00    -0.647 OA
HETATM   31  O   LIG     1      95.986  92.637  97.987  1.00  0.00    -0.647 OA
ENDBRANCH  28  29
ENDBRANCH  27  28
ENDBRANCH  25  27
ENDBRANCH   3  25
BRANCH  17  32
HETATM   32  O   LIG     1      91.250  93.981  85.999  1.00  0.00    -0.385 OA
HETATM   33  H   LIG     1      91.826  94.564  85.530  1.00  0.00     0.210 HD
ENDBRANCH  17  32
TORSDOF 5
ENDMDL
MODEL 4
REMARK VINA RESULT:      -0.0      5.996      9.664
REMARK  5 active torsions:
REMARK  status: ('A' for Active; 'I' for Inactive)
REMARK    1  A    between atoms: C_3  and  C_25 
REMARK    2  A    between atoms: C_17  and  O_32 
REMARK    3  A    between atoms: C_25  and  C_27 
REMARK    4  A    between atoms: C_27  and  C_28 
REMARK    5  A    between atoms: C_28  and  C_29 
ROOT
HETATM    1  O   LIG     1      92.574  89.472  87.222  1.00  0.00    -0.296 OA
HETATM    2  O   LIG     1      93.131  83.765  85.575  1.00  0.00    -0.296 OA
HETATM    3  C   LIG     1      91.785  85.635  90.225  1.00  0.00     0.000 C 
HETATM    4  C   LIG     1      92.358  84.213  89.972  1.00  0.00     0.000 C 
HETATM    5  C   LIG     1      91.644  86.220  88.781  1.00  0.00     0.007 C 
HETATM    6  C   LIG     1      91.701  87.776  88.684  1.00  0.00     0.065 C 
HETATM    7  C   LIG     1      92.186  88.311  87.323  1.00  0.00     0.151 C 
HETATM    8  C   LIG     1      92.839  84.157  88.510  1.00  0.00     0.000 C 
HETATM    9  C   LIG     1      92.911  85.630  88.067  1.00  0.00     0.007 C 
HETATM   10  C   LIG     1      92.180  87.313  86.144  1.00  0.00     0.065 C 
HETATM   11  C   LIG     1      92.947  85.994  86.530  1.00  0.00     0.065 C 
HETATM   12  C   LIG     1      92.525  87.819  84.690  1.00  0.00     0.007 C 
HETATM   13  C   LIG     1      93.992  88.349  84.679  1.00  0.00     0.003 C 
HETATM   14  C   LIG     1      94.681  88.337  83.322  1.00  0.00     0.029 C 
HETATM   15  C   LIG     1      92.642  84.891  85.511  1.00  0.00     0.151 C 
HETATM   16  C   LIG     1      92.223  86.631  83.658  1.00  0.00     0.010 C 
HETATM   17  C   LIG     1      94.628  86.927  82.737  1.00  0.00     0.111 C 
HETATM   18  C   LIG     1      91.764  85.301  84.339  1.00  0.00     0.065 C 
HETATM   19  C   LIG     1      93.180  86.485  82.398  1.00  0.00     0.025 C 
HETATM   20  C   LIG     1      93.236  85.030  81.867  1.00  0.00     0.002 C 
HETATM   21  C   LIG     1      92.610  87.328  81.222  1.00  0.00     0.002 C 
HETATM   22  C   LIG     1      91.590  89.001  84.311  1.00  0.00     0.000 C 
HETATM   23  C   LIG     1      90.300  85.682  88.189  1.00  0.00     0.000 C 
HETATM   24  C   LIG     1      94.270  86.159  88.637  1.00  0.00     0.000 C 
ENDROOT
BRANCH   3  25
HETATM   25  C   LIG     1      90.557  85.630  91.191  1.00  0.00     0.001 C 
HETATM   26  C   LIG     1      90.449  84.267  91.914  1.00  0.00     0.000 C 
BRANCH  25  27
HETATM   27  C   LIG     1      90.595  86.779  92.233  1.00  0.00     0.011 C 
BRANCH  27  28
HETATM   28  C   LIG     1      89.827  88.072  91.868  1.00  0.00     0.098 C 
BRANCH  28  29
HETATM   29  C   LIG     1      88.488  87.808  91.169  1.00  0.00     0.185 C 
HETATM   30  O   LIG     1      88.384  88.113  89.960  1.00  0.00    -0.647 OA
HETATM   31  O   LIG     1      87.577  87.316  91.870  1.00  0.00    -0.647 OA
ENDBRANCH  28  29
ENDBRANCH  27  28
ENDBRANCH  25  27
ENDBRANCH   3  25
BRANCH  17  32
HETATM   32  O   LIG     1      95.475  86.895  81.603  1.00  0.00    -0.385 OA
HETATM   33  H   LIG     1      96.372  86.901  81.900  1.00  0.00     0.210 HD
ENDBRANCH  17  32
TORSDOF 5
ENDMDL
MODEL 5
REMARK VINA RESULT:      -0.0      4.698      8.072
REMARK  5 active torsions:
REMARK  status: ('A' for Active; 'I' for Inactive)
REMARK    1  A    between atoms: C_3  and  C_25 
REMARK    2  A    between atoms: C_17  and  O_32 
REMARK    3  A    between atoms: C_25  and  C_27 
REMARK    4  A    between atoms: C_27  and  C_28 
REMARK    5  A    between atoms: C_28  and  C_29 
ROOT
HETATM    1  O   LIG     1      93.237  89.785  91.908  1.00  0.00    -0.296 OA
HETATM    2  O   LIG     1      93.831  94.049  87.779  1.00  0.00    -0.296 OA
HETATM    3  C   LIG     1      89.939  93.377  91.145  1.00  0.00     0.000 C 
HETATM    4  C   LIG     1      89.840  94.186  89.821  1.00  0.00     0.000 C 
HETATM    5  C   LIG     1      91.450  92.975  91.197  1.00  0.00     0.007 C 
HETATM    6  C   LIG     1      91.767  91.683  92.014  1.00  0.00     0.065 C 
HETATM    7  C   LIG     1      93.050  90.952  91.575  1.00  0.00     0.151 C 
HETATM    8  C   LIG     1      91.131  93.933  89.021  1.00  0.00     0.000 C 
HETATM    9  C   LIG     1      91.765  92.697  89.685  1.00  0.00     0.007 C 
HETATM   10  C   LIG     1      94.035  91.750  90.691  1.00  0.00     0.065 C 
HETATM   11  C   LIG     1      93.292  92.367  89.449  1.00  0.00     0.065 C 
HETATM   12  C   LIG     1      95.435  91.124  90.320  1.00  0.00     0.007 C 
HETATM   13  C   LIG     1      95.197  89.830  89.480  1.00  0.00     0.003 C 
HETATM   14  C   LIG     1      96.347  89.421  88.572  1.00  0.00     0.029 C 
HETATM   15  C   LIG     1      94.173  93.428  88.782  1.00  0.00     0.151 C 
HETATM   16  C   LIG     1      96.316  92.251  89.598  1.00  0.00     0.010 C 
HETATM   17  C   LIG     1      96.709  90.584  87.652  1.00  0.00     0.111 C 
HETATM   18  C   LIG     1      95.561  93.602  89.381  1.00  0.00     0.065 C 
HETATM   19  C   LIG     1      97.292  91.792  88.432  1.00  0.00     0.025 C 
HETATM   20  C   LIG     1      97.569  92.929  87.415  1.00  0.00     0.002 C 
HETATM   21  C   LIG     1      98.680  91.437  89.037  1.00  0.00     0.002 C 
HETATM   22  C   LIG     1      96.188  90.717  91.616  1.00  0.00     0.000 C 
HETATM   23  C   LIG     1      92.239  94.196  91.774  1.00  0.00     0.000 C 
HETATM   24  C   LIG     1      90.992  91.474  89.086  1.00  0.00     0.000 C 
ENDROOT
BRANCH   3  25
HETATM   25  C   LIG     1      89.284  94.116  92.356  1.00  0.00     0.001 C 
HETATM   26  C   LIG     1      88.405  95.287  91.858  1.00  0.00     0.000 C 
BRANCH  25  27
HETATM   27  C   LIG     1      88.447  93.175  93.263  1.00  0.00     0.011 C 
BRANCH  27  28
HETATM   28  C   LIG     1      89.167  92.580  94.496  1.00  0.00     0.098 C 
BRANCH  28  29
HETATM   29  C   LIG     1      90.099  93.576  95.197  1.00  0.00     0.185 C 
HETATM   30  O   LIG     1      91.332  93.379  95.125  1.00  0.00    -0.647 OA
HETATM   31  O   LIG     1      89.553  94.517  95.813  1.00  0.00    -0.647 OA
ENDBRANCH  28  29
ENDBRANCH  27  28
ENDBRANCH  25  27
ENDBRANCH   3  25
BRANCH  17  32
HETATM   32  O   LIG     1      97.606  90.100  86.669  1.00  0.00    -0.385 OA
HETATM   33  H   LIG     1      98.420  90.571  86.750  1.00  0.00     0.210 HD
ENDBRANCH  17  32
TORSDOF 5
ENDMDL
MODEL 6
REMARK VINA RESULT:      -0.0      4.807      7.572
REMARK  5 active torsions:
REMARK  status: ('A' for Active; 'I' for Inactive)
REMARK    1  A    between atoms: C_3  and  C_25 
REMARK    2  A    between atoms: C_17  and  O_32 
REMARK    3  A    between atoms: C_25  and  C_27 
REMARK    4  A    between atoms: C_27  and  C_28 
REMARK    5  A    between atoms: C_28  and  C_29 
ROOT
HETATM    1  O   LIG     1      92.197  84.871  89.057  1.00  0.00    -0.296 OA
HETATM    2  O   LIG     1      96.990  86.683  92.113  1.00  0.00    -0.296 OA
HETATM    3  C   LIG     1      92.185  85.861  93.892  1.00  0.00     0.000 C 
HETATM    4  C   LIG     1      93.251  86.750  94.591  1.00  0.00     0.000 C 
HETATM    5  C   LIG     1      92.969  85.259  92.680  1.00  0.00     0.007 C 
HETATM    6  C   LIG     1      92.092  84.847  91.458  1.00  0.00     0.065 C 
HETATM    7  C   LIG     1      92.834  84.862  90.108  1.00  0.00     0.151 C 
HETATM    8  C   LIG     1      94.435  86.911  93.619  1.00  0.00     0.000 C 
HETATM    9  C   LIG     1      93.881  86.463  92.254  1.00  0.00     0.007 C 
HETATM   10  C   LIG     1      94.377  84.897  90.165  1.00  0.00     0.065 C 
HETATM   11  C   LIG     1      94.872  86.072  91.087  1.00  0.00     0.065 C 
HETATM   12  C   LIG     1      95.212  84.770  88.833  1.00  0.00     0.007 C 
HETATM   13  C   LIG     1      94.879  85.988  87.916  1.00  0.00     0.003 C 
HETATM   14  C   LIG     1      95.951  86.353  86.899  1.00  0.00     0.029 C 
HETATM   15  C   LIG     1      96.356  85.890  91.420  1.00  0.00     0.151 C 
HETATM   16  C   LIG     1      96.759  84.613  89.219  1.00  0.00     0.010 C 
HETATM   17  C   LIG     1      97.278  86.584  87.618  1.00  0.00     0.111 C 
HETATM   18  C   LIG     1      97.041  84.706  90.754  1.00  0.00     0.065 C 
HETATM   19  C   LIG     1      97.833  85.286  88.261  1.00  0.00     0.025 C 
HETATM   20  C   LIG     1      99.143  85.645  89.007  1.00  0.00     0.002 C 
HETATM   21  C   LIG     1      98.252  84.266  87.165  1.00  0.00     0.002 C 
HETATM   22  C   LIG     1      94.797  83.479  88.075  1.00  0.00     0.000 C 
HETATM   23  C   LIG     1      93.782  84.033  93.211  1.00  0.00     0.000 C 
HETATM   24  C   LIG     1      93.091  87.702  91.711  1.00  0.00     0.000 C 
ENDROOT
BRANCH   3  25
HETATM   25  C   LIG     1      91.440  84.915  94.888  1.00  0.00     0.001 C 
HETATM   26  C   LIG     1      91.705  85.356  96.346  1.00  0.00     0.000 C 
BRANCH  25  27
HETATM   27  C   LIG     1      89.911  84.839  94.629  1.00  0.00     0.011 C 
BRANCH  27  28
HETATM   28  C   LIG     1      89.416  83.675  93.737  1.00  0.00     0.098 C 
BRANCH  28  29
HETATM   29  C   LIG     1      90.145  82.352  94.004  1.00  0.00     0.185 C 
HETATM   30  O   LIG     1      90.914  81.915  93.119  1.00  0.00    -0.647 OA
HETATM   31  O   LIG     1      89.902  81.788  95.093  1.00  0.00    -0.647 OA
ENDBRANCH  28  29
ENDBRANCH  27  28
ENDBRANCH  25  27
ENDBRANCH   3  25
BRANCH  17  32
HETATM   32  O   LIG     1      98.184  87.149  86.688  1.00  0.00    -0.385 OA
HETATM   33  H   LIG     1      97.716  87.333  85.889  1.00  0.00     0.210 HD
ENDBRANCH  17  32
TORSDOF 5
ENDMDL
MODEL 7
REMARK VINA RESULT:      -0.0      5.834      8.443
REMARK  5 active torsions:
REMARK  status: ('A' for Active; 'I' for Inactive)
REMARK    1  A    between atoms: C_3  and  C_25 
REMARK    2  A    between atoms: C_17  and  O_32 
REMARK    3  A    between atoms: C_25  and  C_27 
REMARK    4  A    between atoms: C_27  and  C_28 
REMARK    5  A    between atoms: C_28  and  C_29 
ROOT
HETATM    1  O   LIG     1      96.982  90.089  90.088  1.00  0.00    -0.296 OA
HETATM    2  O   LIG     1      94.099  88.793  85.029  1.00  0.00    -0.296 OA
HETATM    3  C   LIG     1      94.896  85.719  89.133  1.00  0.00     0.000 C 
HETATM    4  C   LIG     1      94.566  85.219  87.699  1.00  0.00     0.000 C 
HETATM    5  C   LIG     1      94.803  87.274  88.992  1.00  0.00     0.007 C 
HETATM    6  C   LIG     1      95.654  88.088  90.017  1.00  0.00     0.065 C 
HETATM    7  C   LIG     1      96.068  89.489  89.529  1.00  0.00     0.151 C 
HETATM    8  C   LIG     1      94.645  86.430  86.752  1.00  0.00     0.000 C 
HETATM    9  C   LIG     1      95.395  87.507  87.558  1.00  0.00     0.007 C 
HETATM   10  C   LIG     1      95.303  90.054  88.311  1.00  0.00     0.065 C 
HETATM   11  C   LIG     1      95.314  89.023  87.122  1.00  0.00     0.065 C 
HETATM   12  C   LIG     1      95.567  91.536  87.840  1.00  0.00     0.007 C 
HETATM   13  C   LIG     1      97.057  91.660  87.392  1.00  0.00     0.003 C 
HETATM   14  C   LIG     1      97.352  92.781  86.406  1.00  0.00     0.029 C 
HETATM   15  C   LIG     1      94.278  89.425  86.067  1.00  0.00     0.151 C 
HETATM   16  C   LIG     1      94.487  91.909  86.717  1.00  0.00     0.010 C 
HETATM   17  C   LIG     1      96.447  92.635  85.184  1.00  0.00     0.111 C 
HETATM   18  C   LIG     1      93.539  90.727  86.333  1.00  0.00     0.065 C 
HETATM   19  C   LIG     1      94.951  92.858  85.531  1.00  0.00     0.025 C 
HETATM   20  C   LIG     1      94.123  92.632  84.239  1.00  0.00     0.002 C 
HETATM   21  C   LIG     1      94.693  94.338  85.928  1.00  0.00     0.002 C 
HETATM   22  C   LIG     1      95.346  92.511  89.029  1.00  0.00     0.000 C 
HETATM   23  C   LIG     1      93.292  87.664  89.102  1.00  0.00     0.000 C 
HETATM   24  C   LIG     1      96.910  87.131  87.425  1.00  0.00     0.000 C 
ENDROOT
BRANCH   3  25
HETATM   25  C   LIG     1      94.069  84.983  90.236  1.00  0.00     0.001 C 
HETATM   26  C   LIG     1      93.403  83.717  89.651  1.00  0.00     0.000 C 
BRANCH  25  27
HETATM   27  C   LIG     1      94.914  84.607  91.482  1.00  0.00     0.011 C 
BRANCH  27  28
HETATM   28  C   LIG     1      94.892  85.608  92.662  1.00  0.00     0.098 C 
BRANCH  28  29
HETATM   29  C   LIG     1      93.509  86.220  92.917  1.00  0.00     0.185 C 
HETATM   30  O   LIG     1      93.345  87.433  92.660  1.00  0.00    -0.647 OA
HETATM   31  O   LIG     1      92.635  85.457  93.383  1.00  0.00    -0.647 OA
ENDBRANCH  28  29
ENDBRANCH  27  28
ENDBRANCH  25  27
ENDBRANCH   3  25
BRANCH  17  32
HETATM   32  O   LIG     1      96.906  93.536  84.194  1.00  0.00    -0.385 OA
HETATM   33  H   LIG     1      97.840  93.636  84.290  1.00  0.00     0.210 HD
ENDBRANCH  17  32
TORSDOF 5
ENDMDL
MODEL 8
REMARK VINA RESULT:      -0.0      5.927     10.832
REMARK  5 active torsions:
REMARK  status: ('A' for Active; 'I' for Inactive)
REMARK    1  A    between atoms: C_3  and  C_25 
REMARK    2  A    between atoms: C_17  and  O_32 
REMARK    3  A    between atoms: C_25  and  C_27 
REMARK    4  A    between atoms: C_27  and  C_28 
REMARK    5  A    between atoms: C_28  and  C_29 
ROOT
HETATM    1  O   LIG     1      86.430  84.310  85.503  1.00  0.00    -0.296 OA
HETATM    2  O   LIG     1      92.068  86.233  85.840  1.00  0.00    -0.296 OA
HETATM    3  C   LIG     1      88.188  87.099  89.177  1.00  0.00     0.000 C 
HETATM    4  C   LIG     1      89.469  87.972  89.057  1.00  0.00     0.000 C 
HETATM    5  C   LIG     1      88.462  85.934  88.169  1.00  0.00     0.007 C 
HETATM    6  C   LIG     1      87.190  85.249  87.581  1.00  0.00     0.065 C 
HETATM    7  C   LIG     1      87.400  84.594  86.203  1.00  0.00     0.151 C 
HETATM    8  C   LIG     1      90.232  87.512  87.801  1.00  0.00     0.000 C 
HETATM    9  C   LIG     1      89.209  86.678  87.007  1.00  0.00     0.007 C 
HETATM   10  C   LIG     1      88.862  84.355  85.763  1.00  0.00     0.065 C 
HETATM   11  C   LIG     1      89.701  85.681  85.884  1.00  0.00     0.065 C 
HETATM   12  C   LIG     1      89.159  83.561  84.433  1.00  0.00     0.007 C 
HETATM   13  C   LIG     1      88.569  84.361  83.230  1.00  0.00     0.003 C 
HETATM   14  C   LIG     1      89.220  84.088  81.882  1.00  0.00     0.029 C 
HETATM   15  C   LIG     1      91.197  85.367  85.791  1.00  0.00     0.151 C 
HETATM   16  C   LIG     1      90.734  83.278  84.355  1.00  0.00     0.010 C 
HETATM   17  C   LIG     1      90.725  84.328  81.985  1.00  0.00     0.111 C 
HETATM   18  C   LIG     1      91.550  83.911  85.529  1.00  0.00     0.065 C 
HETATM   19  C   LIG     1      91.420  83.306  82.923  1.00  0.00     0.025 C 
HETATM   20  C   LIG     1      92.924  83.674  82.998  1.00  0.00     0.002 C 
HETATM   21  C   LIG     1      91.378  81.879  82.308  1.00  0.00     0.002 C 
HETATM   22  C   LIG     1      88.449  82.180  84.478  1.00  0.00     0.000 C 
HETATM   23  C   LIG     1      89.361  84.884  88.902  1.00  0.00     0.000 C 
HETATM   24  C   LIG     1      88.327  87.730  86.252  1.00  0.00     0.000 C 
ENDROOT
BRANCH   3  25
HETATM   25  C   LIG     1      87.811  86.779  90.659  1.00  0.00     0.001 C 
HETATM   26  C   LIG     1      88.598  87.697  91.622  1.00  0.00     0.000 C 
BRANCH  25  27
HETATM   27  C   LIG     1      86.289  86.898  90.940  1.00  0.00     0.011 C 
BRANCH  27  28
HETATM   28  C   LIG     1      85.462  85.593  90.840  1.00  0.00     0.098 C 
BRANCH  28  29
HETATM   29  C   LIG     1      86.184  84.369  91.416  1.00  0.00     0.185 C 
HETATM   30  O   LIG     1      86.568  83.483  90.620  1.00  0.00    -0.647 OA
HETATM   31  O   LIG     1      86.325  84.334  92.658  1.00  0.00    -0.647 OA
ENDBRANCH  28  29
ENDBRANCH  27  28
ENDBRANCH  25  27
ENDBRANCH   3  25
BRANCH  17  32
HETATM   32  O   LIG     1      91.260  84.300  80.674  1.00  0.00    -0.385 OA
HETATM   33  H   LIG     1      90.860  83.586  80.203  1.00  0.00     0.210 HD
ENDBRANCH  17  32
TORSDOF 5
ENDMDL
MODEL 9
REMARK VINA RESULT:      -0.0      9.141     11.858
REMARK  5 active torsions:
REMARK  status: ('A' for Active; 'I' for Inactive)
REMARK    1  A    between atoms: C_3  and  C_25 
REMARK    2  A    between atoms: C_17  and  O_32 
REMARK    3  A    between atoms: C_25  and  C_27 
REMARK    4  A    between atoms: C_27  and  C_28 
REMARK    5  A    between atoms: C_28  and  C_29 
ROOT
HETATM    1  O   LIG     1      87.083  93.831  88.445  1.00  0.00    -0.296 OA
HETATM    2  O   LIG     1      90.690  97.359  85.262  1.00  0.00    -0.296 OA
HETATM    3  C   LIG     1      85.662  96.365  84.455  1.00  0.00     0.000 C 
HETATM    4  C   LIG     1      86.647  96.894  83.375  1.00  0.00     0.000 C 
HETATM    5  C   LIG     1      86.538  96.344  85.751  1.00  0.00     0.007 C 
HETATM    6  C   LIG     1      86.092  95.320  86.840  1.00  0.00     0.065 C 
HETATM    7  C   LIG     1      87.224  94.848  87.771  1.00  0.00     0.151 C 
HETATM    8  C   LIG     1      88.068  96.821  83.965  1.00  0.00     0.000 C 
HETATM    9  C   LIG     1      87.935  95.899  85.191  1.00  0.00     0.007 C 
HETATM   10  C   LIG     1      88.517  95.695  87.776  1.00  0.00     0.065 C 
HETATM   11  C   LIG     1      89.050  95.903  86.310  1.00  0.00     0.065 C 
HETATM   12  C   LIG     1      89.665  95.364  88.805  1.00  0.00     0.007 C 
HETATM   13  C   LIG     1      90.202  93.928  88.510  1.00  0.00     0.003 C 
HETATM   14  C   LIG     1      91.624  93.654  88.975  1.00  0.00     0.029 C 
HETATM   15  C   LIG     1      90.105  97.013  86.286  1.00  0.00     0.151 C 
HETATM   16  C   LIG     1      90.763  96.528  88.729  1.00  0.00     0.010 C 
HETATM   17  C   LIG     1      92.565  94.698  88.378  1.00  0.00     0.111 C 
HETATM   18  C   LIG     1      90.466  97.608  87.638  1.00  0.00     0.065 C 
HETATM   19  C   LIG     1      92.286  96.123  88.926  1.00  0.00     0.025 C 
HETATM   20  C   LIG     1      93.253  97.106  88.217  1.00  0.00     0.002 C 
HETATM   21  C   LIG     1      92.648  96.211  90.436  1.00  0.00     0.002 C 
HETATM   22  C   LIG     1      89.093  95.369  90.249  1.00  0.00     0.000 C 
HETATM   23  C   LIG     1      86.546  97.796  86.333  1.00  0.00     0.000 C 
HETATM   24  C   LIG     1      87.955  94.445  84.609  1.00  0.00     0.000 C 
ENDROOT
BRANCH   3  25
HETATM   25  C   LIG     1      84.294  97.121  84.447  1.00  0.00     0.001 C 
HETATM   26  C   LIG     1      84.148  97.952  83.152  1.00  0.00     0.000 C 
BRANCH  25  27
HETATM   27  C   LIG     1      83.074  96.176  84.610  1.00  0.00     0.011 C 
BRANCH  27  28
HETATM   28  C   LIG     1      82.533  95.983  86.047  1.00  0.00     0.098 C 
BRANCH  28  29
HETATM   29  C   LIG     1      82.531  97.274  86.876  1.00  0.00     0.185 C 
HETATM   30  O   LIG     1      83.337  97.364  87.828  1.00  0.00    -0.647 OA
HETATM   31  O   LIG     1      81.702  98.150  86.547  1.00  0.00    -0.647 OA
ENDBRANCH  28  29
ENDBRANCH  27  28
ENDBRANCH  25  27
ENDBRANCH   3  25
BRANCH  17  32
HETATM   32  O   LIG     1      93.894  94.281  88.629  1.00  0.00    -0.385 OA
HETATM   33  H   LIG     1      94.459  95.036  88.578  1.00  0.00     0.210 HD
ENDBRANCH  17  32
TORSDOF 5
ENDMDL
