MODEL 1
REMARK VINA RESULT:       0.0      0.000      0.000
REMARK  6 active torsions:
REMARK  status: ('A' for Active; 'I' for Inactive)
REMARK    1  A    between atoms: C_1  and  C_11 
REMARK    2  A    between atoms: C_1  and  C_20 
REMARK    3  A    between atoms: C_1  and  C_2 
REMARK    4  A    between atoms: C_5  and  N_8 
REMARK    5  A    between atoms: C_14  and  N_17 
REMARK    6  A    between atoms: C_23  and  N_26 
ROOT
HETATM    1  C   LIG     1      91.677  86.824  89.390  1.00  0.00     0.067 C 
ENDROOT
BRANCH   1   2
HETATM    2  C   LIG     1      90.490  86.142  90.069  1.00  0.00    -0.014 A 
HETATM    3  C   LIG     1      90.399  86.147  91.475  1.00  0.00    -0.002 A 
HETATM    4  C   LIG     1      89.318  85.522  92.126  1.00  0.00     0.017 A 
HETATM    5  C   LIG     1      88.297  84.871  91.390  1.00  0.00     0.056 A 
HETATM    6  C   LIG     1      88.401  84.870  89.976  1.00  0.00     0.017 A 
HETATM    7  C   LIG     1      89.480  85.496  89.324  1.00  0.00    -0.002 A 
BRANCH   5   8
HETATM    8  N   LIG     1      87.210  84.243  92.044  1.00  0.00    -0.344 N 
HETATM    9  C   LIG     1      87.296  83.917  93.463  1.00  0.00     0.126 C 
HETATM   10  C   LIG     1      85.996  83.917  91.305  1.00  0.00     0.126 C 
ENDBRANCH   5   8
ENDBRANCH   1   2
BRANCH   1  11
HETATM   11  C   LIG     1      92.098  86.160  88.079  1.00  0.00    -0.014 A 
HETATM   12  C   LIG     1      91.724  86.690  86.825  1.00  0.00    -0.002 A 
HETATM   13  C   LIG     1      92.129  86.061  85.633  1.00  0.00     0.017 A 
HETATM   14  C   LIG     1      92.921  84.885  85.656  1.00  0.00     0.056 A 
HETATM   15  C   LIG     1      93.292  84.365  86.921  1.00  0.00     0.017 A 
HETATM   16  C   LIG     1      92.887  84.993  88.114  1.00  0.00    -0.002 A 
BRANCH  14  17
HETATM   17  N   LIG     1      93.328  84.253  84.457  1.00  0.00    -0.344 N 
HETATM   18  C   LIG     1      92.934  84.802  83.165  1.00  0.00     0.126 C 
HETATM   19  C   LIG     1      94.149  83.048  84.503  1.00  0.00     0.126 C 
ENDBRANCH  14  17
ENDBRANCH   1  11
BRANCH   1  20
HETATM   20  C   LIG     1      91.534  88.343  89.287  1.00  0.00    -0.014 A 
HETATM   21  C   LIG     1      92.687  89.153  89.347  1.00  0.00    -0.002 A 
HETATM   22  C   LIG     1      92.583  90.555  89.260  1.00  0.00     0.023 A 
HETATM   23  C   LIG     1      91.321  91.176  89.111  1.00  0.00     0.127 A 
HETATM   24  C   LIG     1      90.167  90.361  89.054  1.00  0.00     0.023 A 
HETATM   25  C   LIG     1      90.271  88.960  89.141  1.00  0.00    -0.002 A 
BRANCH  23  26
HETATM   26  N   LIG     1      91.211  92.645  89.021  1.00  0.00    -0.114 N 
HETATM   27  O   LIG     1      90.090  93.143  88.974  1.00  0.00    -0.532 OA
HETATM   28  O   LIG     1      92.245  93.304  88.998  1.00  0.00    -0.532 OA
ENDBRANCH  23  26
ENDBRANCH   1  20
TORSDOF 6
ENDMDL
MODEL 2
REMARK VINA RESULT:       0.0      8.419     11.842
REMARK  6 active torsions:
REMARK  status: ('A' for Active; 'I' for Inactive)
REMARK    1  A    between atoms: C_1  and  C_11 
REMARK    2  A    between atoms: C_1  and  C_20 
REMARK    3  A    between atoms: C_1  and  C_2 
REMARK    4  A    between atoms: C_5  and  N_8 
REMARK    5  A    between atoms: C_14  and  N_17 
REMARK    6  A    between atoms: C_23  and  N_26 
ROOT
HETATM    1  C   LIG     1      84.827  91.104  93.456  1.00  0.00     0.067 C 
ENDROOT
BRANCH   1   2
HETATM    2  C   LIG     1      84.368  90.425  92.166  1.00  0.00    -0.014 A 
HETATM    3  C   LIG     1      85.055  89.286  91.700  1.00  0.00    -0.002 A 
HETATM    4  C   LIG     1      84.656  88.643  90.512  1.00  0.00     0.017 A 
HETATM    5  C   LIG     1      83.560  89.123  89.753  1.00  0.00     0.056 A 
HETATM    6  C   LIG     1      82.878  90.271  90.230  1.00  0.00     0.017 A 
HETATM    7  C   LIG     1      83.276  90.913  91.418  1.00  0.00    -0.002 A 
BRANCH   5   8
HETATM    8  N   LIG     1      83.158  88.477  88.559  1.00  0.00    -0.344 N 
HETATM    9  C   LIG     1      82.021  88.982  87.797  1.00  0.00     0.126 C 
HETATM   10  C   LIG     1      83.879  87.303  88.079  1.00  0.00     0.126 C 
ENDBRANCH   5   8
ENDBRANCH   1   2
BRANCH   1  11
HETATM   11  C   LIG     1      84.597  92.616  93.467  1.00  0.00    -0.014 A 
HETATM   12  C   LIG     1      83.500  93.194  94.143  1.00  0.00    -0.002 A 
HETATM   13  C   LIG     1      83.315  94.590  94.141  1.00  0.00     0.017 A 
HETATM   14  C   LIG     1      84.219  95.449  93.468  1.00  0.00     0.056 A 
HETATM   15  C   LIG     1      85.317  94.856  92.797  1.00  0.00     0.017 A 
HETATM   16  C   LIG     1      85.503  93.461  92.797  1.00  0.00    -0.002 A 
BRANCH  14  17
HETATM   17  N   LIG     1      84.032  96.852  93.467  1.00  0.00    -0.344 N 
HETATM   18  C   LIG     1      85.145  97.743  93.161  1.00  0.00     0.126 C 
HETATM   19  C   LIG     1      82.722  97.419  93.770  1.00  0.00     0.126 C 
ENDBRANCH  14  17
ENDBRANCH   1  11
BRANCH   1  20
HETATM   20  C   LIG     1      84.340  90.402  94.723  1.00  0.00    -0.014 A 
HETATM   21  C   LIG     1      85.142  90.434  95.883  1.00  0.00    -0.002 A 
HETATM   22  C   LIG     1      84.720  89.791  97.063  1.00  0.00     0.023 A 
HETATM   23  C   LIG     1      83.486  89.102  97.107  1.00  0.00     0.127 A 
HETATM   24  C   LIG     1      82.686  89.070  95.942  1.00  0.00     0.023 A 
HETATM   25  C   LIG     1      83.107  89.713  94.763  1.00  0.00    -0.002 A 
BRANCH  23  26
HETATM   26  N   LIG     1      83.043  88.427  98.343  1.00  0.00    -0.114 N 
HETATM   27  O   LIG     1      81.992  87.796  98.317  1.00  0.00    -0.532 OA
HETATM   28  O   LIG     1      83.747  88.527  99.343  1.00  0.00    -0.532 OA
ENDBRANCH  23  26
ENDBRANCH   1  20
TORSDOF 6
ENDMDL
MODEL 3
REMARK VINA RESULT:       0.0      4.040      5.958
REMARK  6 active torsions:
REMARK  status: ('A' for Active; 'I' for Inactive)
REMARK    1  A    between atoms: C_1  and  C_11 
REMARK    2  A    between atoms: C_1  and  C_20 
REMARK    3  A    between atoms: C_1  and  C_2 
REMARK    4  A    between atoms: C_5  and  N_8 
REMARK    5  A    between atoms: C_14  and  N_17 
REMARK    6  A    between atoms: C_23  and  N_26 
ROOT
HETATM    1  C   LIG     1      91.088  86.357  86.506  1.00  0.00     0.067 C 
ENDROOT
BRANCH   1   2
HETATM    2  C   LIG     1      90.655  87.399  87.538  1.00  0.00    -0.014 A 
HETATM    3  C   LIG     1      91.557  87.792  88.546  1.00  0.00    -0.002 A 
HETATM    4  C   LIG     1      91.182  88.746  89.512  1.00  0.00     0.017 A 
HETATM    5  C   LIG     1      89.893  89.334  89.499  1.00  0.00     0.056 A 
HETATM    6  C   LIG     1      88.993  88.928  88.481  1.00  0.00     0.017 A 
HETATM    7  C   LIG     1      89.367  87.975  87.515  1.00  0.00    -0.002 A 
BRANCH   5   8
HETATM    8  N   LIG     1      89.516  90.293  90.469  1.00  0.00    -0.344 N 
HETATM    9  C   LIG     1      88.185  90.889  90.434  1.00  0.00     0.126 C 
HETATM   10  C   LIG     1      90.453  90.691  91.513  1.00  0.00     0.126 C 
ENDBRANCH   5   8
ENDBRANCH   1   2
BRANCH   1  11
HETATM   11  C   LIG     1      89.941  85.479  86.005  1.00  0.00    -0.014 A 
HETATM   12  C   LIG     1      89.313  85.717  84.763  1.00  0.00    -0.002 A 
HETATM   13  C   LIG     1      88.262  84.889  84.323  1.00  0.00     0.017 A 
HETATM   14  C   LIG     1      87.810  83.798  85.108  1.00  0.00     0.056 A 
HETATM   15  C   LIG     1      88.452  83.568  86.350  1.00  0.00     0.017 A 
HETATM   16  C   LIG     1      89.502  84.395  86.791  1.00  0.00    -0.002 A 
BRANCH  14  17
HETATM   17  N   LIG     1      86.755  82.966  84.665  1.00  0.00    -0.344 N 
HETATM   18  C   LIG     1      86.303  81.849  85.487  1.00  0.00     0.126 C 
HETATM   19  C   LIG     1      86.106  83.220  83.383  1.00  0.00     0.126 C 
ENDBRANCH  14  17
ENDBRANCH   1  11
BRANCH   1  20
HETATM   20  C   LIG     1      91.954  86.931  85.384  1.00  0.00    -0.014 A 
HETATM   21  C   LIG     1      92.943  86.119  84.791  1.00  0.00    -0.002 A 
HETATM   22  C   LIG     1      93.759  86.623  83.759  1.00  0.00     0.023 A 
HETATM   23  C   LIG     1      93.602  87.952  83.300  1.00  0.00     0.127 A 
HETATM   24  C   LIG     1      92.611  88.763  83.900  1.00  0.00     0.023 A 
HETATM   25  C   LIG     1      91.796  88.259  84.930  1.00  0.00    -0.002 A 
BRANCH  23  26
HETATM   26  N   LIG     1      94.457  88.481  82.220  1.00  0.00    -0.114 N 
HETATM   27  O   LIG     1      94.321  89.657  81.894  1.00  0.00    -0.532 OA
HETATM   28  O   LIG     1      95.266  87.724  81.696  1.00  0.00    -0.532 OA
ENDBRANCH  23  26
ENDBRANCH   1  20
TORSDOF 6
ENDMDL
MODEL 4
REMARK VINA RESULT:       0.0      4.057      7.003
REMARK  6 active torsions:
REMARK  status: ('A' for Active; 'I' for Inactive)
REMARK    1  A    between atoms: C_1  and  C_11 
REMARK    2  A    between atoms: C_1  and  C_20 
REMARK    3  A    between atoms: C_1  and  C_2 
REMARK    4  A    between atoms: C_5  and  N_8 
REMARK    5  A    between atoms: C_14  and  N_17 
REMARK    6  A    between atoms: C_23  and  N_26 
ROOT
HETATM    1  C   LIG     1      90.289  88.742  87.117  1.00  0.00     0.067 C 
ENDROOT
BRANCH   1   2
HETATM    2  C   LIG     1      91.396  89.476  86.362  1.00  0.00    -0.014 A 
HETATM    3  C   LIG     1      91.547  90.867  86.530  1.00  0.00    -0.002 A 
HETATM    4  C   LIG     1      92.556  91.568  85.843  1.00  0.00     0.017 A 
HETATM    5  C   LIG     1      93.444  90.899  84.965  1.00  0.00     0.056 A 
HETATM    6  C   LIG     1      93.282  89.500  84.801  1.00  0.00     0.017 A 
HETATM    7  C   LIG     1      92.273  88.798  85.489  1.00  0.00    -0.002 A 
BRANCH   5   8
HETATM    8  N   LIG     1      94.459  91.603  84.273  1.00  0.00    -0.344 N 
HETATM    9  C   LIG     1      94.529  93.058  84.354  1.00  0.00     0.126 C 
HETATM   10  C   LIG     1      95.443  90.881  83.476  1.00  0.00     0.126 C 
ENDBRANCH   5   8
ENDBRANCH   1   2
BRANCH   1  11
HETATM   11  C   LIG     1      89.741  87.526  86.371  1.00  0.00    -0.014 A 
HETATM   12  C   LIG     1      90.156  86.214  86.686  1.00  0.00    -0.002 A 
HETATM   13  C   LIG     1      89.632  85.110  85.986  1.00  0.00     0.017 A 
HETATM   14  C   LIG     1      88.676  85.283  84.954  1.00  0.00     0.056 A 
HETATM   15  C   LIG     1      88.265  86.606  84.650  1.00  0.00     0.017 A 
HETATM   16  C   LIG     1      88.789  87.709  85.348  1.00  0.00    -0.002 A 
BRANCH  14  17
HETATM   17  N   LIG     1      88.149  84.174  84.251  1.00  0.00    -0.344 N 
HETATM   18  C   LIG     1      88.334  82.821  84.764  1.00  0.00     0.126 C 
HETATM   19  C   LIG     1      87.412  84.373  83.007  1.00  0.00     0.126 C 
ENDBRANCH  14  17
ENDBRANCH   1  11
BRANCH   1  20
HETATM   20  C   LIG     1      90.629  88.460  88.580  1.00  0.00    -0.014 A 
HETATM   21  C   LIG     1      89.595  88.432  89.539  1.00  0.00    -0.002 A 
HETATM   22  C   LIG     1      89.881  88.179  90.895  1.00  0.00     0.023 A 
HETATM   23  C   LIG     1      91.210  87.949  91.320  1.00  0.00     0.127 A 
HETATM   24  C   LIG     1      92.245  87.981  90.357  1.00  0.00     0.023 A 
HETATM   25  C   LIG     1      91.959  88.233  89.002  1.00  0.00    -0.002 A 
BRANCH  23  26
HETATM   26  N   LIG     1      91.511  87.685  92.741  1.00  0.00    -0.114 N 
HETATM   27  O   LIG     1      90.572  87.539  93.517  1.00  0.00    -0.532 OA
HETATM   28  O   LIG     1      92.687  87.621  93.083  1.00  0.00    -0.532 OA
ENDBRANCH  23  26
ENDBRANCH   1  20
TORSDOF 6
ENDMDL
MODEL 5
REMARK VINA RESULT:       0.0      4.971      8.218
REMARK  6 active torsions:
REMARK  status: ('A' for Active; 'I' for Inactive)
REMARK    1  A    between atoms: C_1  and  C_11 
REMARK    2  A    between atoms: C_1  and  C_20 
REMARK    3  A    between atoms: C_1  and  C_2 
REMARK    4  A    between atoms: C_5  and  N_8 
REMARK    5  A    between atoms: C_14  and  N_17 
REMARK    6  A    between atoms: C_23  and  N_26 
ROOT
HETATM    1  C   LIG     1      91.812  88.925  91.732  1.00  0.00     0.067 C 
ENDROOT
BRANCH   1   2
HETATM    2  C   LIG     1      92.701  90.123  91.402  1.00  0.00    -0.014 A 
HETATM    3  C   LIG     1      93.532  90.666  92.402  1.00  0.00    -0.002 A 
HETATM    4  C   LIG     1      94.357  91.773  92.126  1.00  0.00     0.017 A 
HETATM    5  C   LIG     1      94.374  92.372  90.842  1.00  0.00     0.056 A 
HETATM    6  C   LIG     1      93.532  91.819  89.844  1.00  0.00     0.017 A 
HETATM    7  C   LIG     1      92.707  90.711  90.119  1.00  0.00    -0.002 A 
BRANCH   5   8
HETATM    8  N   LIG     1      95.204  93.485  90.564  1.00  0.00    -0.344 N 
HETATM    9  C   LIG     1      96.057  94.043  91.607  1.00  0.00     0.126 C 
HETATM   10  C   LIG     1      95.213  94.081  89.233  1.00  0.00     0.126 C 
ENDBRANCH   5   8
ENDBRANCH   1   2
BRANCH   1  11
HETATM   11  C   LIG     1      90.498  88.903  90.950  1.00  0.00    -0.014 A 
HETATM   12  C   LIG     1      90.326  88.083  89.813  1.00  0.00    -0.002 A 
HETATM   13  C   LIG     1      89.103  88.079  89.114  1.00  0.00     0.017 A 
HETATM   14  C   LIG     1      88.017  88.889  89.530  1.00  0.00     0.056 A 
HETATM   15  C   LIG     1      88.203  89.704  90.674  1.00  0.00     0.017 A 
HETATM   16  C   LIG     1      89.424  89.710  91.373  1.00  0.00    -0.002 A 
BRANCH  14  17
HETATM   17  N   LIG     1      86.789  88.884  88.827  1.00  0.00    -0.344 N 
HETATM   18  C   LIG     1      85.681  89.721  89.273  1.00  0.00     0.126 C 
HETATM   19  C   LIG     1      86.621  88.042  87.647  1.00  0.00     0.126 C 
ENDBRANCH  14  17
ENDBRANCH   1  11
BRANCH   1  20
HETATM   20  C   LIG     1      92.555  87.589  91.716  1.00  0.00    -0.014 A 
HETATM   21  C   LIG     1      92.146  86.559  92.589  1.00  0.00    -0.002 A 
HETATM   22  C   LIG     1      92.816  85.320  92.599  1.00  0.00     0.023 A 
HETATM   23  C   LIG     1      93.912  85.087  91.735  1.00  0.00     0.127 A 
HETATM   24  C   LIG     1      94.320  86.122  90.863  1.00  0.00     0.023 A 
HETATM   25  C   LIG     1      93.650  87.360  90.853  1.00  0.00    -0.002 A 
BRANCH  23  26
HETATM   26  N   LIG     1      94.615  83.789  91.745  1.00  0.00    -0.114 N 
HETATM   27  O   LIG     1      95.595  83.653  91.019  1.00  0.00    -0.532 OA
HETATM   28  O   LIG     1      94.190  82.904  92.480  1.00  0.00    -0.532 OA
ENDBRANCH  23  26
ENDBRANCH   1  20
TORSDOF 6
ENDMDL
MODEL 6
REMARK VINA RESULT:       0.0      5.275      7.673
REMARK  6 active torsions:
REMARK  status: ('A' for Active; 'I' for Inactive)
REMARK    1  A    between atoms: C_1  and  C_11 
REMARK    2  A    between atoms: C_1  and  C_20 
REMARK    3  A    between atoms: C_1  and  C_2 
REMARK    4  A    between atoms: C_5  and  N_8 
REMARK    5  A    between atoms: C_14  and  N_17 
REMARK    6  A    between atoms: C_23  and  N_26 
ROOT
HETATM    1  C   LIG     1      92.351  87.480  92.628  1.00  0.00     0.067 C 
ENDROOT
BRANCH   1   2
HETATM    2  C   LIG     1      92.645  88.948  92.933  1.00  0.00    -0.014 A 
HETATM    3  C   LIG     1      92.109  89.535  94.097  1.00  0.00    -0.002 A 
HETATM    4  C   LIG     1      92.361  90.888  94.399  1.00  0.00     0.017 A 
HETATM    5  C   LIG     1      93.154  91.694  93.546  1.00  0.00     0.056 A 
HETATM    6  C   LIG     1      93.685  91.093  92.376  1.00  0.00     0.017 A 
HETATM    7  C   LIG     1      93.435  89.741  92.074  1.00  0.00    -0.002 A 
BRANCH   5   8
HETATM    8  N   LIG     1      93.406  93.053  93.850  1.00  0.00    -0.344 N 
HETATM    9  C   LIG     1      94.233  93.863  92.962  1.00  0.00     0.126 C 
HETATM   10  C   LIG     1      92.842  93.655  95.052  1.00  0.00     0.126 C 
ENDBRANCH   5   8
ENDBRANCH   1   2
BRANCH   1  11
HETATM   11  C   LIG     1      92.282  87.167  91.133  1.00  0.00    -0.014 A 
HETATM   12  C   LIG     1      93.365  86.575  90.448  1.00  0.00    -0.002 A 
HETATM   13  C   LIG     1      93.273  86.293  89.072  1.00  0.00     0.017 A 
HETATM   14  C   LIG     1      92.096  86.591  88.339  1.00  0.00     0.056 A 
HETATM   15  C   LIG     1      91.015  87.182  89.040  1.00  0.00     0.017 A 
HETATM   16  C   LIG     1      91.107  87.465  90.415  1.00  0.00    -0.002 A 
BRANCH  14  17
HETATM   17  N   LIG     1      92.004  86.307  86.956  1.00  0.00    -0.344 N 
HETATM   18  C   LIG     1      90.783  86.616  86.221  1.00  0.00     0.126 C 
HETATM   19  C   LIG     1      93.131  85.706  86.252  1.00  0.00     0.126 C 
ENDBRANCH  14  17
ENDBRANCH   1  11
BRANCH   1  20
HETATM   20  C   LIG     1      93.225  86.504  93.416  1.00  0.00    -0.014 A 
HETATM   21  C   LIG     1      92.700  85.248  93.786  1.00  0.00    -0.002 A 
HETATM   22  C   LIG     1      93.481  84.333  94.518  1.00  0.00     0.023 A 
HETATM   23  C   LIG     1      94.805  84.655  94.895  1.00  0.00     0.127 A 
HETATM   24  C   LIG     1      95.327  85.916  94.525  1.00  0.00     0.023 A 
HETATM   25  C   LIG     1      94.547  86.831  93.794  1.00  0.00    -0.002 A 
BRANCH  23  26
HETATM   26  N   LIG     1      95.624  83.696  95.662  1.00  0.00    -0.114 N 
HETATM   27  O   LIG     1      95.147  82.594  95.912  1.00  0.00    -0.532 OA
HETATM   28  O   LIG     1      96.746  84.043  96.016  1.00  0.00    -0.532 OA
ENDBRANCH  23  26
ENDBRANCH   1  20
TORSDOF 6
ENDMDL
MODEL 7
REMARK VINA RESULT:       0.0      4.794      8.348
REMARK  6 active torsions:
REMARK  status: ('A' for Active; 'I' for Inactive)
REMARK    1  A    between atoms: C_1  and  C_11 
REMARK    2  A    between atoms: C_1  and  C_20 
REMARK    3  A    between atoms: C_1  and  C_2 
REMARK    4  A    between atoms: C_5  and  N_8 
REMARK    5  A    between atoms: C_14  and  N_17 
REMARK    6  A    between atoms: C_23  and  N_26 
ROOT
HETATM    1  C   LIG     1      89.684  90.211  93.667  1.00  0.00     0.067 C 
ENDROOT
BRANCH   1   2
HETATM    2  C   LIG     1      89.998  89.619  92.293  1.00  0.00    -0.014 A 
HETATM    3  C   LIG     1      89.446  90.210  91.140  1.00  0.00    -0.002 A 
HETATM    4  C   LIG     1      89.716  89.682  89.863  1.00  0.00     0.017 A 
HETATM    5  C   LIG     1      90.545  88.545  89.701  1.00  0.00     0.056 A 
HETATM    6  C   LIG     1      91.093  87.956  90.869  1.00  0.00     0.017 A 
HETATM    7  C   LIG     1      90.825  88.485  92.146  1.00  0.00    -0.002 A 
BRANCH   5   8
HETATM    8  N   LIG     1      90.817  88.014  88.418  1.00  0.00    -0.344 N 
HETATM    9  C   LIG     1      91.974  87.151  88.210  1.00  0.00     0.126 C 
HETATM   10  C   LIG     1      89.941  88.324  87.293  1.00  0.00     0.126 C 
ENDBRANCH   5   8
ENDBRANCH   1   2
BRANCH   1  11
HETATM   11  C   LIG     1      89.668  89.175  94.791  1.00  0.00    -0.014 A 
HETATM   12  C   LIG     1      90.759  89.021  95.674  1.00  0.00    -0.002 A 
HETATM   13  C   LIG     1      90.716  88.063  96.704  1.00  0.00     0.017 A 
HETATM   14  C   LIG     1      89.582  87.231  96.885  1.00  0.00     0.056 A 
HETATM   15  C   LIG     1      88.492  87.398  95.994  1.00  0.00     0.017 A 
HETATM   16  C   LIG     1      88.535  88.355  94.964  1.00  0.00    -0.002 A 
BRANCH  14  17
HETATM   17  N   LIG     1      89.539  86.267  97.921  1.00  0.00    -0.344 N 
HETATM   18  C   LIG     1      88.355  85.436  98.105  1.00  0.00     0.126 C 
HETATM   19  C   LIG     1      90.681  86.095  98.812  1.00  0.00     0.126 C 
ENDBRANCH  14  17
ENDBRANCH   1  11
BRANCH   1  20
HETATM   20  C   LIG     1      90.503  91.459  93.997  1.00  0.00    -0.014 A 
HETATM   21  C   LIG     1      89.928  92.473  94.791  1.00  0.00    -0.002 A 
HETATM   22  C   LIG     1      90.657  93.636  95.106  1.00  0.00     0.023 A 
HETATM   23  C   LIG     1      91.979  93.808  94.633  1.00  0.00     0.127 A 
HETATM   24  C   LIG     1      92.551  92.790  93.835  1.00  0.00     0.023 A 
HETATM   25  C   LIG     1      91.822  91.628  93.520  1.00  0.00    -0.002 A 
BRANCH  23  26
HETATM   26  N   LIG     1      92.744  95.027  94.962  1.00  0.00    -0.114 N 
HETATM   27  O   LIG     1      93.864  95.158  94.478  1.00  0.00    -0.532 OA
HETATM   28  O   LIG     1      92.227  95.854  95.705  1.00  0.00    -0.532 OA
ENDBRANCH  23  26
ENDBRANCH   1  20
TORSDOF 6
ENDMDL
MODEL 8
REMARK VINA RESULT:       0.0      5.706      8.583
REMARK  6 active torsions:
REMARK  status: ('A' for Active; 'I' for Inactive)
REMARK    1  A    between atoms: C_1  and  C_11 
REMARK    2  A    between atoms: C_1  and  C_20 
REMARK    3  A    between atoms: C_1  and  C_2 
REMARK    4  A    between atoms: C_5  and  N_8 
REMARK    5  A    between atoms: C_14  and  N_17 
REMARK    6  A    between atoms: C_23  and  N_26 
ROOT
HETATM    1  C   LIG     1      90.573  88.278  94.465  1.00  0.00     0.067 C 
ENDROOT
BRANCH   1   2
HETATM    2  C   LIG     1      91.042  88.916  93.157  1.00  0.00    -0.014 A 
HETATM    3  C   LIG     1      90.097  89.505  92.295  1.00  0.00    -0.002 A 
HETATM    4  C   LIG     1      90.502  90.096  91.082  1.00  0.00     0.017 A 
HETATM    5  C   LIG     1      91.864  90.112  90.695  1.00  0.00     0.056 A 
HETATM    6  C   LIG     1      92.806  89.513  91.569  1.00  0.00     0.017 A 
HETATM    7  C   LIG     1      92.402  88.924  92.782  1.00  0.00    -0.002 A 
BRANCH   5   8
HETATM    8  N   LIG     1      92.272  90.705  89.476  1.00  0.00    -0.344 N 
HETATM    9  C   LIG     1      93.681  90.715  89.099  1.00  0.00     0.126 C 
HETATM   10  C   LIG     1      91.287  91.310  88.587  1.00  0.00     0.126 C 
ENDBRANCH   5   8
ENDBRANCH   1   2
BRANCH   1  11
HETATM   11  C   LIG     1      91.423  87.085  94.904  1.00  0.00    -0.014 A 
HETATM   12  C   LIG     1      92.414  87.209  95.901  1.00  0.00    -0.002 A 
HETATM   13  C   LIG     1      93.179  86.093  96.291  1.00  0.00     0.017 A 
HETATM   14  C   LIG     1      92.976  84.821  95.699  1.00  0.00     0.056 A 
HETATM   15  C   LIG     1      91.975  84.711  94.701  1.00  0.00     0.017 A 
HETATM   16  C   LIG     1      91.211  85.825  94.311  1.00  0.00    -0.002 A 
BRANCH  14  17
HETATM   17  N   LIG     1      93.746  83.700  96.091  1.00  0.00    -0.344 N 
HETATM   18  C   LIG     1      93.517  82.398  95.475  1.00  0.00     0.126 C 
HETATM   19  C   LIG     1      94.777  83.838  97.113  1.00  0.00     0.126 C 
ENDBRANCH  14  17
ENDBRANCH   1  11
BRANCH   1  20
HETATM   20  C   LIG     1      90.316  89.290  95.581  1.00  0.00    -0.014 A 
HETATM   21  C   LIG     1      89.309  89.028  96.534  1.00  0.00    -0.002 A 
HETATM   22  C   LIG     1      89.047  89.945  97.570  1.00  0.00     0.023 A 
HETATM   23  C   LIG     1      89.788  91.146  97.674  1.00  0.00     0.127 A 
HETATM   24  C   LIG     1      90.794  91.406  96.715  1.00  0.00     0.023 A 
HETATM   25  C   LIG     1      91.055  90.490  95.680  1.00  0.00    -0.002 A 
BRANCH  23  26
HETATM   26  N   LIG     1      89.514  92.108  98.759  1.00  0.00    -0.114 N 
HETATM   27  O   LIG     1      90.141  93.163  98.773  1.00  0.00    -0.532 OA
HETATM   28  O   LIG     1      88.670  91.812  99.598  1.00  0.00    -0.532 OA
ENDBRANCH  23  26
ENDBRANCH   1  20
TORSDOF 6
ENDMDL
MODEL 9
REMARK VINA RESULT:       0.0      6.981      8.134
REMARK  6 active torsions:
REMARK  status: ('A' for Active; 'I' for Inactive)
REMARK    1  A    between atoms: C_1  and  C_11 
REMARK    2  A    between atoms: C_1  and  C_20 
REMARK    3  A    between atoms: C_1  and  C_2 
REMARK    4  A    between atoms: C_5  and  N_8 
REMARK    5  A    between atoms: C_14  and  N_17 
REMARK    6  A    between atoms: C_23  and  N_26 
ROOT
HETATM    1  C   LIG     1      89.145  93.827  91.216  1.00  0.00     0.067 C 
ENDROOT
BRANCH   1   2
HETATM    2  C   LIG     1      88.681  92.804  92.253  1.00  0.00    -0.014 A 
HETATM    3  C   LIG     1      87.455  92.999  92.919  1.00  0.00    -0.002 A 
HETATM    4  C   LIG     1      87.006  92.075  93.882  1.00  0.00     0.017 A 
HETATM    5  C   LIG     1      87.772  90.928  94.209  1.00  0.00     0.056 A 
HETATM    6  C   LIG     1      89.006  90.744  93.535  1.00  0.00     0.017 A 
HETATM    7  C   LIG     1      89.454  91.667  92.571  1.00  0.00    -0.002 A 
BRANCH   5   8
HETATM    8  N   LIG     1      87.321  89.999  95.177  1.00  0.00    -0.344 N 
HETATM    9  C   LIG     1      88.123  88.823  95.495  1.00  0.00     0.126 C 
HETATM   10  C   LIG     1      86.053  90.210  95.864  1.00  0.00     0.126 C 
ENDBRANCH   5   8
ENDBRANCH   1   2
BRANCH   1  11
HETATM   11  C   LIG     1      90.665  93.975  91.140  1.00  0.00    -0.014 A 
HETATM   12  C   LIG     1      91.421  93.348  90.126  1.00  0.00    -0.002 A 
HETATM   13  C   LIG     1      92.819  93.505  90.076  1.00  0.00     0.017 A 
HETATM   14  C   LIG     1      93.503  94.295  91.034  1.00  0.00     0.056 A 
HETATM   15  C   LIG     1      92.732  94.922  92.044  1.00  0.00     0.017 A 
HETATM   16  C   LIG     1      91.334  94.765  92.095  1.00  0.00    -0.002 A 
BRANCH  14  17
HETATM   17  N   LIG     1      94.909  94.453  90.983  1.00  0.00    -0.344 N 
HETATM   18  C   LIG     1      95.594  95.274  91.975  1.00  0.00     0.126 C 
HETATM   19  C   LIG     1      95.685  93.794  89.939  1.00  0.00     0.126 C 
ENDBRANCH  14  17
ENDBRANCH   1  11
BRANCH   1  20
HETATM   20  C   LIG     1      88.478  93.659  89.851  1.00  0.00    -0.014 A 
HETATM   21  C   LIG     1      88.246  94.797  89.050  1.00  0.00    -0.002 A 
HETATM   22  C   LIG     1      87.628  94.673  87.791  1.00  0.00     0.023 A 
HETATM   23  C   LIG     1      87.229  93.406  87.306  1.00  0.00     0.127 A 
HETATM   24  C   LIG     1      87.461  92.268  88.112  1.00  0.00     0.023 A 
HETATM   25  C   LIG     1      88.078  92.392  89.371  1.00  0.00    -0.002 A 
BRANCH  23  26
HETATM   26  N   LIG     1      86.580  93.274  85.986  1.00  0.00    -0.114 N 
HETATM   27  O   LIG     1      86.449  94.283  85.300  1.00  0.00    -0.532 OA
HETATM   28  O   LIG     1      86.202  92.162  85.633  1.00  0.00    -0.532 OA
ENDBRANCH  23  26
ENDBRANCH   1  20
TORSDOF 6
ENDMDL
