MODEL 1
REMARK VINA RESULT:      -0.0      0.000      0.000
REMARK  2 active torsions:
REMARK  status: ('A' for Active; 'I' for Inactive)
REMARK    1  A    between atoms: C_8  and  O_27 
REMARK    2  A    between atoms: C_13  and  O_29 
ROOT
HETATM    1  C   LIG     1      89.775  90.272  90.688  1.00  0.00     0.214 C 
HETATM    2  C   LIG     1      91.236  90.502  90.296  1.00  0.00     0.040 C 
HETATM    3  C   LIG     1      90.075  92.542  89.946  1.00  0.00     0.191 C 
HETATM    4  C   LIG     1      93.064  92.569  88.528  1.00  0.00     0.024 A 
HETATM    5  C   LIG     1      89.685  93.932  90.468  1.00  0.00     0.035 C 
HETATM    6  C   LIG     1      91.431  92.012  90.492  1.00  0.00     0.068 C 
HETATM    7  C   LIG     1      92.738  92.479  89.889  1.00  0.00    -0.001 A 
HETATM    8  C   LIG     1      94.372  92.944  88.148  1.00  0.00     0.116 A 
HETATM    9  C   LIG     1      88.015  91.932  91.325  1.00  0.00     0.235 C 
HETATM   10  C   LIG     1      89.561  93.849  91.997  1.00  0.00     0.026 C 
HETATM   11  C   LIG     1      91.677  92.349  91.989  1.00  0.00     0.096 C 
HETATM   12  C   LIG     1      93.686  92.758  90.875  1.00  0.00     0.060 A 
HETATM   13  C   LIG     1      95.348  93.256  89.149  1.00  0.00     0.118 A 
HETATM   14  C   LIG     1      88.592  92.788  92.453  1.00  0.00    -0.016 C 
HETATM   15  C   LIG     1      90.949  93.575  92.561  1.00  0.00     0.053 C 
HETATM   16  C   LIG     1      94.991  93.150  90.524  1.00  0.00     0.043 A 
HETATM   17  C   LIG     1      91.084  93.348  94.070  1.00  0.00     0.127 C 
HETATM   18  C   LIG     1      93.593  93.099  93.350  1.00  0.00     0.240 C 
HETATM   19  C   LIG     1      88.859  93.439  94.944  1.00  0.00     0.168 C 
HETATM   20  C   LIG     1      92.577  93.582  94.439  1.00  0.00     0.118 C 
HETATM   21  O   LIG     1      94.795  93.154  93.602  1.00  0.00    -0.272 OA
HETATM   22  N   LIG     1      93.098  92.649  92.159  1.00  0.00    -0.301 N 
HETATM   23  O   LIG     1      90.100  94.139  94.722  1.00  0.00    -0.351 OA
HETATM   24  C   LIG     1      88.282  92.643  93.758  1.00  0.00    -0.001 C 
HETATM   25  N   LIG     1      89.052  91.513  90.326  1.00  0.00    -0.024 N 
HETATM   26  H   LIG     1      88.546  91.301  89.478  1.00  0.00     0.283 HD
ENDROOT
BRANCH   8  27
HETATM   27  O   LIG     1      94.582  92.993  86.784  1.00  0.00    -0.326 OA
HETATM   28  C   LIG     1      94.201  94.156  86.065  1.00  0.00     0.181 C 
ENDBRANCH   8  27
BRANCH  13  29
HETATM   29  O   LIG     1      96.599  93.684  88.754  1.00  0.00    -0.326 OA
HETATM   30  C   LIG     1      96.853  95.076  88.638  1.00  0.00     0.181 C 
ENDBRANCH  13  29
TORSDOF 2
ENDMDL
MODEL 2
REMARK VINA RESULT:       0.0      3.485      6.832
REMARK  2 active torsions:
REMARK  status: ('A' for Active; 'I' for Inactive)
REMARK    1  A    between atoms: C_8  and  O_27 
REMARK    2  A    between atoms: C_13  and  O_29 
ROOT
HETATM    1  C   LIG     1      95.334  87.561  88.578  1.00  0.00     0.214 C 
HETATM    2  C   LIG     1      94.180  88.408  88.039  1.00  0.00     0.040 C 
HETATM    3  C   LIG     1      94.316  88.795  90.376  1.00  0.00     0.191 C 
HETATM    4  C   LIG     1      91.493  89.954  89.099  1.00  0.00     0.024 A 
HETATM    5  C   LIG     1      94.817  89.675  91.530  1.00  0.00     0.035 C 
HETATM    6  C   LIG     1      94.077  89.563  89.045  1.00  0.00     0.068 C 
HETATM    7  C   LIG     1      92.808  90.361  88.835  1.00  0.00    -0.001 A 
HETATM    8  C   LIG     1      90.418  90.804  88.754  1.00  0.00     0.116 A 
HETATM    9  C   LIG     1      96.656  87.824  90.686  1.00  0.00     0.235 C 
HETATM   10  C   LIG     1      96.160  90.292  91.111  1.00  0.00     0.026 C 
HETATM   11  C   LIG     1      95.145  90.651  88.751  1.00  0.00     0.096 C 
HETATM   12  C   LIG     1      93.073  91.595  88.241  1.00  0.00     0.060 A 
HETATM   13  C   LIG     1      90.677  92.084  88.166  1.00  0.00     0.118 A 
HETATM   14  C   LIG     1      97.182  89.259  90.710  1.00  0.00    -0.016 C 
HETATM   15  C   LIG     1      95.891  91.246  89.955  1.00  0.00     0.053 C 
HETATM   16  C   LIG     1      92.023  92.469  87.903  1.00  0.00     0.043 A 
HETATM   17  C   LIG     1      97.090  91.923  89.283  1.00  0.00     0.127 C 
HETATM   18  C   LIG     1      95.138  92.956  87.869  1.00  0.00     0.240 C 
HETATM   19  C   LIG     1      99.029  91.041  90.370  1.00  0.00     0.168 C 
HETATM   20  C   LIG     1      96.549  93.164  88.516  1.00  0.00     0.118 C 
HETATM   21  O   LIG     1      94.679  93.850  87.161  1.00  0.00    -0.272 OA
HETATM   22  N   LIG     1      94.472  91.792  88.131  1.00  0.00    -0.301 N 
HETATM   23  O   LIG     1      98.089  92.129  90.272  1.00  0.00    -0.351 OA
HETATM   24  C   LIG     1      98.449  89.614  90.410  1.00  0.00    -0.001 C 
HETATM   25  N   LIG     1      95.302  87.713  90.051  1.00  0.00    -0.024 N 
HETATM   26  H   LIG     1      94.901  86.858  90.409  1.00  0.00     0.283 HD
ENDROOT
BRANCH   8  27
HETATM   27  O   LIG     1      89.168  90.299  89.053  1.00  0.00    -0.326 OA
HETATM   28  C   LIG     1      88.660  90.439  90.371  1.00  0.00     0.181 C 
ENDBRANCH   8  27
BRANCH  13  29
HETATM   29  O   LIG     1      89.615  92.925  87.898  1.00  0.00    -0.326 OA
HETATM   30  C   LIG     1      89.233  93.891  88.868  1.00  0.00     0.181 C 
ENDBRANCH  13  29
TORSDOF 2
ENDMDL
MODEL 3
REMARK VINA RESULT:       0.0      4.777      6.831
REMARK  2 active torsions:
REMARK  status: ('A' for Active; 'I' for Inactive)
REMARK    1  A    between atoms: C_8  and  O_27 
REMARK    2  A    between atoms: C_13  and  O_29 
ROOT
HETATM    1  C   LIG     1      85.774  93.341  90.627  1.00  0.00     0.214 C 
HETATM    2  C   LIG     1      87.047  94.177  90.481  1.00  0.00     0.040 C 
HETATM    3  C   LIG     1      87.176  92.402  88.912  1.00  0.00     0.191 C 
HETATM    4  C   LIG     1      90.086  93.931  89.282  1.00  0.00     0.024 A 
HETATM    5  C   LIG     1      86.975  91.911  87.471  1.00  0.00     0.035 C 
HETATM    6  C   LIG     1      87.484  93.921  89.032  1.00  0.00     0.068 C 
HETATM    7  C   LIG     1      88.882  94.445  88.780  1.00  0.00    -0.001 A 
HETATM    8  C   LIG     1      91.298  94.607  89.013  1.00  0.00     0.116 A 
HETATM    9  C   LIG     1      84.706  91.764  89.004  1.00  0.00     0.235 C 
HETATM   10  C   LIG     1      85.780  92.668  86.872  1.00  0.00     0.026 C 
HETATM   11  C   LIG     1      86.672  94.804  88.044  1.00  0.00     0.096 C 
HETATM   12  C   LIG     1      88.861  95.612  88.016  1.00  0.00     0.060 A 
HETATM   13  C   LIG     1      91.294  95.793  88.210  1.00  0.00     0.118 A 
HETATM   14  C   LIG     1      84.523  92.527  87.692  1.00  0.00    -0.016 C 
HETATM   15  C   LIG     1      86.173  94.135  86.754  1.00  0.00     0.053 C 
HETATM   16  C   LIG     1      90.054  96.296  87.719  1.00  0.00     0.043 A 
HETATM   17  C   LIG     1      85.112  95.130  86.272  1.00  0.00     0.127 C 
HETATM   18  C   LIG     1      87.137  96.760  86.615  1.00  0.00     0.240 C 
HETATM   19  C   LIG     1      83.109  93.856  85.978  1.00  0.00     0.168 C 
HETATM   20  C   LIG     1      85.863  96.401  85.779  1.00  0.00     0.118 C 
HETATM   21  O   LIG     1      87.734  97.804  86.358  1.00  0.00    -0.272 OA
HETATM   22  N   LIG     1      87.539  95.889  87.587  1.00  0.00    -0.301 N 
HETATM   23  O   LIG     1      84.263  94.456  85.355  1.00  0.00    -0.351 OA
HETATM   24  C   LIG     1      83.352  93.041  87.263  1.00  0.00    -0.001 C 
HETATM   25  N   LIG     1      85.949  92.167  89.741  1.00  0.00    -0.024 N 
HETATM   26  H   LIG     1      86.171  91.392  90.348  1.00  0.00     0.283 HD
ENDROOT
BRANCH   8  27
HETATM   27  O   LIG     1      92.419  94.016  89.561  1.00  0.00    -0.326 OA
HETATM   28  C   LIG     1      93.041  92.940  88.876  1.00  0.00     0.181 C 
ENDBRANCH   8  27
BRANCH  13  29
HETATM   29  O   LIG     1      92.495  96.400  87.905  1.00  0.00    -0.326 OA
HETATM   30  C   LIG     1      93.157  96.060  86.696  1.00  0.00     0.181 C 
ENDBRANCH  13  29
TORSDOF 2
ENDMDL
MODEL 4
REMARK VINA RESULT:       0.0      4.027      5.872
REMARK  2 active torsions:
REMARK  status: ('A' for Active; 'I' for Inactive)
REMARK    1  A    between atoms: C_8  and  O_27 
REMARK    2  A    between atoms: C_13  and  O_29 
ROOT
HETATM    1  C   LIG     1      88.576  97.825  87.496  1.00  0.00     0.214 C 
HETATM    2  C   LIG     1      89.936  97.287  87.046  1.00  0.00     0.040 C 
HETATM    3  C   LIG     1      89.471  96.353  89.177  1.00  0.00     0.191 C 
HETATM    4  C   LIG     1      92.630  95.908  88.302  1.00  0.00     0.024 A 
HETATM    5  C   LIG     1      88.941  95.171  90.000  1.00  0.00     0.035 C 
HETATM    6  C   LIG     1      90.066  95.955  87.797  1.00  0.00     0.068 C 
HETATM    7  C   LIG     1      91.471  95.403  87.696  1.00  0.00    -0.001 A 
HETATM    8  C   LIG     1      93.880  95.312  88.022  1.00  0.00     0.116 A 
HETATM    9  C   LIG     1      86.978  96.906  89.188  1.00  0.00     0.235 C 
HETATM   10  C   LIG     1      87.819  94.495  89.197  1.00  0.00     0.026 C 
HETATM   11  C   LIG     1      89.271  94.832  87.074  1.00  0.00     0.096 C 
HETATM   12  C   LIG     1      91.533  94.317  86.822  1.00  0.00     0.060 A 
HETATM   13  C   LIG     1      93.955  94.181  87.146  1.00  0.00     0.118 A 
HETATM   14  C   LIG     1      86.716  95.448  88.811  1.00  0.00    -0.016 C 
HETATM   15  C   LIG     1      88.445  93.880  87.952  1.00  0.00     0.053 C 
HETATM   16  C   LIG     1      92.762  93.693  86.538  1.00  0.00     0.043 A 
HETATM   17  C   LIG     1      87.517  93.226  86.925  1.00  0.00     0.127 C 
HETATM   18  C   LIG     1      89.833  92.818  85.765  1.00  0.00     0.240 C 
HETATM   19  C   LIG     1      85.295  93.565  87.744  1.00  0.00     0.168 C 
HETATM   20  C   LIG     1      88.391  92.280  86.051  1.00  0.00     0.118 C 
HETATM   21  O   LIG     1      90.556  92.183  85.000  1.00  0.00    -0.272 OA
HETATM   22  N   LIG     1      90.230  93.967  86.389  1.00  0.00    -0.301 N 
HETATM   23  O   LIG     1      86.415  92.664  87.623  1.00  0.00    -0.351 OA
HETATM   24  C   LIG     1      85.602  95.007  88.191  1.00  0.00    -0.001 C 
HETATM   25  N   LIG     1      88.381  97.340  88.882  1.00  0.00    -0.024 N 
HETATM   26  H   LIG     1      88.559  98.134  89.481  1.00  0.00     0.283 HD
ENDROOT
BRANCH   8  27
HETATM   27  O   LIG     1      94.952  95.895  88.669  1.00  0.00    -0.326 OA
HETATM   28  C   LIG     1      95.242  95.521  90.007  1.00  0.00     0.181 C 
ENDBRANCH   8  27
BRANCH  13  29
HETATM   29  O   LIG     1      95.177  93.574  86.939  1.00  0.00    -0.326 OA
HETATM   30  C   LIG     1      95.549  92.469  87.750  1.00  0.00     0.181 C 
ENDBRANCH  13  29
TORSDOF 2
ENDMDL
MODEL 5
REMARK VINA RESULT:       0.0      5.191      6.718
REMARK  2 active torsions:
REMARK  status: ('A' for Active; 'I' for Inactive)
REMARK    1  A    between atoms: C_8  and  O_27 
REMARK    2  A    between atoms: C_13  and  O_29 
ROOT
HETATM    1  C   LIG     1      84.392  95.958  93.621  1.00  0.00     0.214 C 
HETATM    2  C   LIG     1      84.617  95.430  92.202  1.00  0.00     0.040 C 
HETATM    3  C   LIG     1      86.750  95.731  93.196  1.00  0.00     0.191 C 
HETATM    4  C   LIG     1      86.969  95.269  89.928  1.00  0.00     0.024 A 
HETATM    5  C   LIG     1      87.948  95.117  93.934  1.00  0.00     0.035 C 
HETATM    6  C   LIG     1      85.980  94.732  92.286  1.00  0.00     0.068 C 
HETATM    7  C   LIG     1      86.505  94.384  90.910  1.00  0.00    -0.001 A 
HETATM    8  C   LIG     1      87.339  94.771  88.658  1.00  0.00     0.116 A 
HETATM    9  C   LIG     1      85.918  95.901  95.603  1.00  0.00     0.235 C 
HETATM   10  C   LIG     1      87.425  93.989  94.836  1.00  0.00     0.026 C 
HETATM   11  C   LIG     1      85.838  93.311  92.900  1.00  0.00     0.096 C 
HETATM   12  C   LIG     1      86.406  93.015  90.656  1.00  0.00     0.060 A 
HETATM   13  C   LIG     1      87.266  93.365  88.391  1.00  0.00     0.118 A 
HETATM   14  C   LIG     1      86.354  94.448  95.792  1.00  0.00    -0.016 C 
HETATM   15  C   LIG     1      86.891  92.884  93.934  1.00  0.00     0.053 C 
HETATM   16  C   LIG     1      86.784  92.489  89.406  1.00  0.00     0.043 A 
HETATM   17  C   LIG     1      86.217  91.676  94.593  1.00  0.00     0.127 C 
HETATM   18  C   LIG     1      86.003  90.993  92.070  1.00  0.00     0.240 C 
HETATM   19  C   LIG     1      86.214  92.132  96.941  1.00  0.00     0.168 C 
HETATM   20  C   LIG     1      86.217  90.523  93.548  1.00  0.00     0.118 C 
HETATM   21  O   LIG     1      85.889  90.139  91.193  1.00  0.00    -0.272 OA
HETATM   22  N   LIG     1      85.965  92.335  91.818  1.00  0.00    -0.301 N 
HETATM   23  O   LIG     1      86.851  91.448  95.843  1.00  0.00    -0.351 OA
HETATM   24  C   LIG     1      85.852  93.615  96.727  1.00  0.00    -0.001 C 
HETATM   25  N   LIG     1      85.736  96.269  94.161  1.00  0.00    -0.024 N 
HETATM   26  H   LIG     1      85.825  97.274  94.121  1.00  0.00     0.283 HD
ENDROOT
BRANCH   8  27
HETATM   27  O   LIG     1      87.775  95.732  87.768  1.00  0.00    -0.326 OA
HETATM   28  C   LIG     1      89.124  96.168  87.823  1.00  0.00     0.181 C 
ENDBRANCH   8  27
BRANCH  13  29
HETATM   29  O   LIG     1      87.694  92.892  87.167  1.00  0.00    -0.326 OA
HETATM   30  C   LIG     1      89.035  92.445  87.027  1.00  0.00     0.181 C 
ENDBRANCH  13  29
TORSDOF 2
ENDMDL
MODEL 6
REMARK VINA RESULT:       0.0      4.899      7.287
REMARK  2 active torsions:
REMARK  status: ('A' for Active; 'I' for Inactive)
REMARK    1  A    between atoms: C_8  and  O_27 
REMARK    2  A    between atoms: C_13  and  O_29 
ROOT
HETATM    1  C   LIG     1      88.605  89.505  99.759  1.00  0.00     0.214 C 
HETATM    2  C   LIG     1      89.928  89.549  98.992  1.00  0.00     0.040 C 
HETATM    3  C   LIG     1      88.296  88.623  97.542  1.00  0.00     0.191 C 
HETATM    4  C   LIG     1      91.362  88.185  96.381  1.00  0.00     0.024 A 
HETATM    5  C   LIG     1      87.286  88.832  96.404  1.00  0.00     0.035 C 
HETATM    6  C   LIG     1      89.494  89.613  97.522  1.00  0.00     0.068 C 
HETATM    7  C   LIG     1      90.666  89.384  96.593  1.00  0.00    -0.001 A 
HETATM    8  C   LIG     1      92.497  88.177  95.538  1.00  0.00     0.116 A 
HETATM    9  C   LIG     1      86.263  89.375  98.890  1.00  0.00     0.235 C 
HETATM   10  C   LIG     1      86.708  90.250  96.534  1.00  0.00     0.026 C 
HETATM   11  C   LIG     1      89.100  91.063  97.124  1.00  0.00     0.096 C 
HETATM   12  C   LIG     1      91.074  90.569  95.981  1.00  0.00     0.060 A 
HETATM   13  C   LIG     1      92.911  89.382  94.884  1.00  0.00     0.118 A 
HETATM   14  C   LIG     1      86.093  90.513  97.884  1.00  0.00    -0.016 C 
HETATM   15  C   LIG     1      87.838  91.236  96.266  1.00  0.00     0.053 C 
HETATM   16  C   LIG     1      92.190  90.587  95.123  1.00  0.00     0.043 A 
HETATM   17  C   LIG     1      87.545  92.731  96.431  1.00  0.00     0.127 C 
HETATM   18  C   LIG     1      90.064  92.841  95.710  1.00  0.00     0.240 C 
HETATM   19  C   LIG     1      85.281  92.872  97.191  1.00  0.00     0.168 C 
HETATM   20  C   LIG     1      88.647  93.505  95.651  1.00  0.00     0.118 C 
HETATM   21  O   LIG     1      91.013  93.437  95.206  1.00  0.00    -0.272 OA
HETATM   22  N   LIG     1      90.180  91.619  96.309  1.00  0.00    -0.301 N 
HETATM   23  O   LIG     1      86.188  92.955  96.073  1.00  0.00    -0.351 OA
HETATM   24  C   LIG     1      85.448  91.670  98.141  1.00  0.00    -0.001 C 
HETATM   25  N   LIG     1      87.646  88.795  98.882  1.00  0.00    -0.024 N 
HETATM   26  H   LIG     1      87.556  87.865  99.266  1.00  0.00     0.283 HD
ENDROOT
BRANCH   8  27
HETATM   27  O   LIG     1      93.107  86.945  95.408  1.00  0.00    -0.326 OA
HETATM   28  C   LIG     1      92.591  86.011  94.472  1.00  0.00     0.181 C 
ENDBRANCH   8  27
BRANCH  13  29
HETATM   29  O   LIG     1      93.982  89.337  94.014  1.00  0.00    -0.326 OA
HETATM   30  C   LIG     1      93.742  89.138  92.628  1.00  0.00     0.181 C 
ENDBRANCH  13  29
TORSDOF 2
ENDMDL
MODEL 7
REMARK VINA RESULT:       0.0      5.288      7.782
REMARK  2 active torsions:
REMARK  status: ('A' for Active; 'I' for Inactive)
REMARK    1  A    between atoms: C_8  and  O_27 
REMARK    2  A    between atoms: C_13  and  O_29 
ROOT
HETATM    1  C   LIG     1      86.254  91.135  92.250  1.00  0.00     0.214 C 
HETATM    2  C   LIG     1      87.367  90.652  91.318  1.00  0.00     0.040 C 
HETATM    3  C   LIG     1      87.372  89.242  93.226  1.00  0.00     0.191 C 
HETATM    4  C   LIG     1      90.104  88.854  91.403  1.00  0.00     0.024 A 
HETATM    5  C   LIG     1      86.937  87.922  93.880  1.00  0.00     0.035 C 
HETATM    6  C   LIG     1      87.525  89.169  91.681  1.00  0.00     0.068 C 
HETATM    7  C   LIG     1      88.773  88.581  91.058  1.00  0.00    -0.001 A 
HETATM    8  C   LIG     1      91.151  88.277  90.648  1.00  0.00     0.116 A 
HETATM    9  C   LIG     1      85.061  89.913  94.078  1.00  0.00     0.235 C 
HETATM   10  C   LIG     1      85.567  87.533  93.303  1.00  0.00     0.026 C 
HETATM   11  C   LIG     1      86.433  88.310  90.984  1.00  0.00     0.096 C 
HETATM   12  C   LIG     1      88.465  87.747  89.983  1.00  0.00     0.060 A 
HETATM   13  C   LIG     1      90.849  87.399  89.557  1.00  0.00     0.118 A 
HETATM   14  C   LIG     1      84.529  88.612  93.476  1.00  0.00    -0.016 C 
HETATM   15  C   LIG     1      85.759  87.215  91.826  1.00  0.00     0.053 C 
HETATM   16  C   LIG     1      89.487  87.146  89.225  1.00  0.00     0.043 A 
HETATM   17  C   LIG     1      84.517  86.892  90.990  1.00  0.00     0.127 C 
HETATM   18  C   LIG     1      86.373  86.659  89.152  1.00  0.00     0.240 C 
HETATM   19  C   LIG     1      82.653  87.140  92.469  1.00  0.00     0.168 C 
HETATM   20  C   LIG     1      85.003  86.148  89.713  1.00  0.00     0.118 C 
HETATM   21  O   LIG     1      86.782  86.196  88.089  1.00  0.00    -0.272 OA
HETATM   22  N   LIG     1      87.060  87.590  89.876  1.00  0.00    -0.301 N 
HETATM   23  O   LIG     1      83.579  86.236  91.832  1.00  0.00    -0.351 OA
HETATM   24  C   LIG     1      83.244  88.405  93.120  1.00  0.00    -0.001 C 
HETATM   25  N   LIG     1      86.375  90.331  93.487  1.00  0.00    -0.024 N 
HETATM   26  H   LIG     1      86.803  90.938  94.172  1.00  0.00     0.283 HD
ENDROOT
BRANCH   8  27
HETATM   27  O   LIG     1      92.420  88.618  91.072  1.00  0.00    -0.326 OA
HETATM   28  C   LIG     1      93.007  87.906  92.150  1.00  0.00     0.181 C 
ENDBRANCH   8  27
BRANCH  13  29
HETATM   29  O   LIG     1      91.887  86.796  88.876  1.00  0.00    -0.326 OA
HETATM   30  C   LIG     1      92.321  85.504  89.275  1.00  0.00     0.181 C 
ENDBRANCH  13  29
TORSDOF 2
ENDMDL
MODEL 8
REMARK VINA RESULT:       0.0      6.140      9.938
REMARK  2 active torsions:
REMARK  status: ('A' for Active; 'I' for Inactive)
REMARK    1  A    between atoms: C_8  and  O_27 
REMARK    2  A    between atoms: C_13  and  O_29 
ROOT
HETATM    1  C   LIG     1      83.200  98.754  90.012  1.00  0.00     0.214 C 
HETATM    2  C   LIG     1      83.367  97.796  91.194  1.00  0.00     0.040 C 
HETATM    3  C   LIG     1      82.844  96.487  89.285  1.00  0.00     0.191 C 
HETATM    4  C   LIG     1      82.568  94.746  92.085  1.00  0.00     0.024 A 
HETATM    5  C   LIG     1      83.336  95.613  88.123  1.00  0.00     0.035 C 
HETATM    6  C   LIG     1      83.772  96.472  90.534  1.00  0.00     0.068 C 
HETATM    7  C   LIG     1      83.713  95.326  91.520  1.00  0.00    -0.001 A 
HETATM    8  C   LIG     1      82.708  93.737  93.064  1.00  0.00     0.116 A 
HETATM    9  C   LIG     1      83.348  98.297  87.557  1.00  0.00     0.235 C 
HETATM   10  C   LIG     1      84.709  96.140  87.678  1.00  0.00     0.026 C 
HETATM   11  C   LIG     1      85.286  96.466  90.186  1.00  0.00     0.096 C 
HETATM   12  C   LIG     1      84.990  94.919  91.909  1.00  0.00     0.060 A 
HETATM   13  C   LIG     1      84.013  93.293  93.454  1.00  0.00     0.118 A 
HETATM   14  C   LIG     1      84.688  97.601  87.309  1.00  0.00    -0.016 C 
HETATM   15  C   LIG     1      85.690  95.897  88.818  1.00  0.00     0.053 C 
HETATM   16  C   LIG     1      85.159  93.905  92.870  1.00  0.00     0.043 A 
HETATM   17  C   LIG     1      87.120  96.425  88.665  1.00  0.00     0.127 C 
HETATM   18  C   LIG     1      87.299  95.318  91.035  1.00  0.00     0.240 C 
HETATM   19  C   LIG     1      87.168  97.578  86.570  1.00  0.00     0.168 C 
HETATM   20  C   LIG     1      88.009  95.649  89.679  1.00  0.00     0.118 C 
HETATM   21  O   LIG     1      87.958  94.796  91.932  1.00  0.00    -0.272 OA
HETATM   22  N   LIG     1      85.971  95.614  91.158  1.00  0.00    -0.301 N 
HETATM   23  O   LIG     1      87.466  96.364  87.288  1.00  0.00    -0.351 OA
HETATM   24  C   LIG     1      85.780  98.207  86.800  1.00  0.00    -0.001 C 
HETATM   25  N   LIG     1      82.737  97.926  88.875  1.00  0.00    -0.024 N 
HETATM   26  H   LIG     1      81.749  98.112  88.781  1.00  0.00     0.283 HD
ENDROOT
BRANCH   8  27
HETATM   27  O   LIG     1      81.515  93.244  93.555  1.00  0.00    -0.326 OA
HETATM   28  C   LIG     1      80.830  92.236  92.827  1.00  0.00     0.181 C 
ENDBRANCH   8  27
BRANCH  13  29
HETATM   29  O   LIG     1      84.125  92.261  94.364  1.00  0.00    -0.326 OA
HETATM   30  C   LIG     1      84.247  90.928  93.890  1.00  0.00     0.181 C 
ENDBRANCH  13  29
TORSDOF 2
ENDMDL
MODEL 9
REMARK VINA RESULT:       0.0      4.366      6.214
REMARK  2 active torsions:
REMARK  status: ('A' for Active; 'I' for Inactive)
REMARK    1  A    between atoms: C_8  and  O_27 
REMARK    2  A    between atoms: C_13  and  O_29 
ROOT
HETATM    1  C   LIG     1      87.819  93.386  95.122  1.00  0.00     0.214 C 
HETATM    2  C   LIG     1      87.608  92.155  94.239  1.00  0.00     0.040 C 
HETATM    3  C   LIG     1      89.846  92.878  93.928  1.00  0.00     0.191 C 
HETATM    4  C   LIG     1      88.932  90.681  91.630  1.00  0.00     0.024 A 
HETATM    5  C   LIG     1      91.330  92.732  94.290  1.00  0.00     0.035 C 
HETATM    6  C   LIG     1      89.018  91.571  94.086  1.00  0.00     0.068 C 
HETATM    7  C   LIG     1      89.057  90.502  93.015  1.00  0.00    -0.001 A 
HETATM    8  C   LIG     1      88.902  89.551  90.781  1.00  0.00     0.116 A 
HETATM    9  C   LIG     1      89.945  94.379  95.991  1.00  0.00     0.235 C 
HETATM   10  C   LIG     1      91.422  92.309  95.764  1.00  0.00     0.026 C 
HETATM   11  C   LIG     1      89.409  90.731  95.334  1.00  0.00     0.096 C 
HETATM   12  C   LIG     1      89.155  89.226  93.569  1.00  0.00     0.060 A 
HETATM   13  C   LIG     1      89.026  88.235  91.335  1.00  0.00     0.118 A 
HETATM   14  C   LIG     1      90.710  93.257  96.694  1.00  0.00    -0.016 C 
HETATM   15  C   LIG     1      90.832  90.909  95.882  1.00  0.00     0.053 C 
HETATM   16  C   LIG     1      89.145  88.083  92.746  1.00  0.00     0.043 A 
HETATM   17  C   LIG     1      90.714  90.291  97.279  1.00  0.00     0.127 C 
HETATM   18  C   LIG     1      89.729  88.337  95.835  1.00  0.00     0.240 C 
HETATM   19  C   LIG     1      91.484  91.968  98.801  1.00  0.00     0.168 C 
HETATM   20  C   LIG     1      90.566  88.754  97.091  1.00  0.00     0.118 C 
HETATM   21  O   LIG     1      89.477  87.145  95.665  1.00  0.00    -0.272 OA
HETATM   22  N   LIG     1      89.325  89.317  94.973  1.00  0.00    -0.301 N 
HETATM   23  O   LIG     1      91.798  90.769  98.064  1.00  0.00    -0.351 OA
HETATM   24  C   LIG     1      90.772  93.097  98.032  1.00  0.00    -0.001 C 
HETATM   25  N   LIG     1      89.172  93.895  94.800  1.00  0.00    -0.024 N 
HETATM   26  H   LIG     1      89.031  94.707  94.217  1.00  0.00     0.283 HD
ENDROOT
BRANCH   8  27
HETATM   27  O   LIG     1      88.770  89.845  89.438  1.00  0.00    -0.326 OA
HETATM   28  C   LIG     1      89.923  90.193  88.688  1.00  0.00     0.181 C 
ENDBRANCH   8  27
BRANCH  13  29
HETATM   29  O   LIG     1      89.060  87.151  90.482  1.00  0.00    -0.326 OA
HETATM   30  C   LIG     1      90.315  86.653  90.042  1.00  0.00     0.181 C 
ENDBRANCH  13  29
TORSDOF 2
ENDMDL
