MODEL 1
REMARK VINA RESULT:       0.0      0.000      0.000
REMARK  3 active torsions:
REMARK  status: ('A' for Active; 'I' for Inactive)
REMARK    1  A    between atoms: C_7  and  N_11 
REMARK    2  A    between atoms: N_11  and  C_13 
REMARK    3  A    between atoms: C_13  and  C_14 
ROOT
HETATM    1  N   LIG     1      91.062  90.698  89.002  1.00  0.00    -0.207 NA
HETATM    2  N   LIG     1      90.685  92.381  87.320  1.00  0.00    -0.205 NA
HETATM    3  N   LIG     1      92.360  92.237  85.499  1.00  0.00    -0.232 N 
HETATM    4  N   LIG     1      93.437  91.474  85.172  1.00  0.00    -0.166 NA
HETATM    5  C   LIG     1      91.772  91.849  86.693  1.00  0.00     0.166 A 
HETATM    6  C   LIG     1      92.556  90.754  87.144  1.00  0.00     0.090 A 
HETATM    7  C   LIG     1      92.140  90.175  88.374  1.00  0.00     0.143 A 
HETATM    8  C   LIG     1      93.564  90.593  86.137  1.00  0.00     0.126 A 
HETATM    9  C   LIG     1      90.418  91.736  88.458  1.00  0.00     0.202 A 
HETATM   10  C   LIG     1      91.972  93.307  84.603  1.00  0.00     0.156 C 
ENDROOT
BRANCH   7  11
HETATM   11  N   LIG     1      92.746  89.092  89.021  1.00  0.00    -0.355 N 
HETATM   12  H   LIG     1      93.482  89.263  89.690  1.00  0.00     0.162 HD
BRANCH  11  13
HETATM   13  C   LIG     1      92.290  87.729  88.810  1.00  0.00     0.126 C 
BRANCH  13  14
HETATM   14  C   LIG     1      92.640  87.186  87.438  1.00  0.00    -0.000 A 
HETATM   15  C   LIG     1      93.987  86.952  87.089  1.00  0.00    -0.002 A 
HETATM   16  C   LIG     1      94.313  86.451  85.813  1.00  0.00    -0.000 A 
HETATM   17  C   LIG     1      93.291  86.185  84.880  1.00  0.00    -0.000 A 
HETATM   18  C   LIG     1      91.946  86.420  85.223  1.00  0.00    -0.000 A 
HETATM   19  C   LIG     1      91.621  86.921  86.499  1.00  0.00    -0.002 A 
ENDBRANCH  13  14
ENDBRANCH  11  13
ENDBRANCH   7  11
TORSDOF 3
ENDMDL
MODEL 2
REMARK VINA RESULT:       0.0      5.812      7.914
REMARK  3 active torsions:
REMARK  status: ('A' for Active; 'I' for Inactive)
REMARK    1  A    between atoms: C_7  and  N_11 
REMARK    2  A    between atoms: N_11  and  C_13 
REMARK    3  A    between atoms: C_13  and  C_14 
ROOT
HETATM    1  N   LIG     1      90.609  96.187  88.352  1.00  0.00    -0.207 NA
HETATM    2  N   LIG     1      90.248  97.526  90.321  1.00  0.00    -0.205 NA
HETATM    3  N   LIG     1      87.942  97.258  91.190  1.00  0.00    -0.232 N 
HETATM    4  N   LIG     1      86.815  96.565  90.875  1.00  0.00    -0.166 NA
HETATM    5  C   LIG     1      88.985  97.012  90.310  1.00  0.00     0.166 A 
HETATM    6  C   LIG     1      88.455  96.090  89.370  1.00  0.00     0.090 A 
HETATM    7  C   LIG     1      89.355  95.680  88.348  1.00  0.00     0.143 A 
HETATM    8  C   LIG     1      87.105  95.871  89.799  1.00  0.00     0.126 A 
HETATM    9  C   LIG     1      90.972  97.051  89.304  1.00  0.00     0.202 A 
HETATM   10  C   LIG     1      87.921  98.123  92.352  1.00  0.00     0.156 C 
ENDROOT
BRANCH   7  11
HETATM   11  N   LIG     1      89.071  94.784  87.311  1.00  0.00    -0.355 N 
HETATM   12  H   LIG     1      88.705  95.136  86.438  1.00  0.00     0.162 HD
BRANCH  11  13
HETATM   13  C   LIG     1      89.360  93.365  87.432  1.00  0.00     0.126 C 
BRANCH  13  14
HETATM   14  C   LIG     1      88.434  92.645  88.393  1.00  0.00    -0.000 A 
HETATM   15  C   LIG     1      87.066  92.495  88.081  1.00  0.00    -0.002 A 
HETATM   16  C   LIG     1      86.204  91.829  88.975  1.00  0.00    -0.000 A 
HETATM   17  C   LIG     1      86.708  91.312  90.184  1.00  0.00    -0.000 A 
HETATM   18  C   LIG     1      88.072  91.462  90.500  1.00  0.00    -0.000 A 
HETATM   19  C   LIG     1      88.934  92.129  89.607  1.00  0.00    -0.002 A 
ENDBRANCH  13  14
ENDBRANCH  11  13
ENDBRANCH   7  11
TORSDOF 3
ENDMDL
MODEL 3
REMARK VINA RESULT:       0.0     10.786     13.173
REMARK  3 active torsions:
REMARK  status: ('A' for Active; 'I' for Inactive)
REMARK    1  A    between atoms: C_7  and  N_11 
REMARK    2  A    between atoms: N_11  and  C_13 
REMARK    3  A    between atoms: C_13  and  C_14 
ROOT
HETATM    1  N   LIG     1      84.703  91.728  93.812  1.00  0.00    -0.207 NA
HETATM    2  N   LIG     1      84.329  90.340  95.745  1.00  0.00    -0.205 NA
HETATM    3  N   LIG     1      85.705  91.077  97.671  1.00  0.00    -0.232 N 
HETATM    4  N   LIG     1      86.613  92.049  97.953  1.00  0.00    -0.166 NA
HETATM    5  C   LIG     1      85.239  91.143  96.367  1.00  0.00     0.166 A 
HETATM    6  C   LIG     1      85.921  92.249  95.794  1.00  0.00     0.090 A 
HETATM    7  C   LIG     1      85.604  92.521  94.435  1.00  0.00     0.143 A 
HETATM    8  C   LIG     1      86.752  92.748  96.851  1.00  0.00     0.126 A 
HETATM    9  C   LIG     1      84.137  90.718  94.479  1.00  0.00     0.202 A 
HETATM   10  C   LIG     1      85.346  90.140  98.716  1.00  0.00     0.156 C 
ENDROOT
BRANCH   7  11
HETATM   11  N   LIG     1      86.141  93.551  93.654  1.00  0.00    -0.355 N 
HETATM   12  H   LIG     1      86.979  93.380  93.116  1.00  0.00     0.162 HD
BRANCH  11  13
HETATM   13  C   LIG     1      85.481  94.840  93.537  1.00  0.00     0.126 C 
BRANCH  13  14
HETATM   14  C   LIG     1      85.564  95.671  94.802  1.00  0.00    -0.000 A 
HETATM   15  C   LIG     1      86.807  96.176  95.240  1.00  0.00    -0.002 A 
HETATM   16  C   LIG     1      86.885  96.946  96.418  1.00  0.00    -0.000 A 
HETATM   17  C   LIG     1      85.719  97.212  97.162  1.00  0.00    -0.000 A 
HETATM   18  C   LIG     1      84.478  96.708  96.731  1.00  0.00    -0.000 A 
HETATM   19  C   LIG     1      84.400  95.937  95.554  1.00  0.00    -0.002 A 
ENDBRANCH  13  14
ENDBRANCH  11  13
ENDBRANCH   7  11
TORSDOF 3
ENDMDL
MODEL 4
REMARK VINA RESULT:       0.0      6.220      7.603
REMARK  3 active torsions:
REMARK  status: ('A' for Active; 'I' for Inactive)
REMARK    1  A    between atoms: C_7  and  N_11 
REMARK    2  A    between atoms: N_11  and  C_13 
REMARK    3  A    between atoms: C_13  and  C_14 
ROOT
HETATM    1  N   LIG     1      95.902  93.409  91.719  1.00  0.00    -0.207 NA
HETATM    2  N   LIG     1      95.877  95.787  91.337  1.00  0.00    -0.205 NA
HETATM    3  N   LIG     1      93.668  96.551  90.512  1.00  0.00    -0.232 N 
HETATM    4  N   LIG     1      92.456  96.010  90.215  1.00  0.00    -0.166 NA
HETATM    5  C   LIG     1      94.582  95.606  90.953  1.00  0.00     0.166 A 
HETATM    6  C   LIG     1      93.874  94.375  90.921  1.00  0.00     0.090 A 
HETATM    7  C   LIG     1      94.616  93.236  91.337  1.00  0.00     0.143 A 
HETATM    8  C   LIG     1      92.565  94.724  90.451  1.00  0.00     0.126 A 
HETATM    9  C   LIG     1      96.441  94.632  91.698  1.00  0.00     0.202 A 
HETATM   10  C   LIG     1      93.848  97.979  90.348  1.00  0.00     0.156 C 
ENDROOT
BRANCH   7  11
HETATM   11  N   LIG     1      94.143  91.920  91.394  1.00  0.00    -0.355 N 
HETATM   12  H   LIG     1      94.243  91.323  90.586  1.00  0.00     0.162 HD
BRANCH  11  13
HETATM   13  C   LIG     1      93.579  91.367  92.613  1.00  0.00     0.126 C 
BRANCH  13  14
HETATM   14  C   LIG     1      92.218  91.938  92.956  1.00  0.00    -0.000 A 
HETATM   15  C   LIG     1      91.104  91.661  92.134  1.00  0.00    -0.002 A 
HETATM   16  C   LIG     1      89.839  92.194  92.450  1.00  0.00    -0.000 A 
HETATM   17  C   LIG     1      89.684  93.009  93.589  1.00  0.00    -0.000 A 
HETATM   18  C   LIG     1      90.792  93.290  94.410  1.00  0.00    -0.000 A 
HETATM   19  C   LIG     1      92.057  92.757  94.093  1.00  0.00    -0.002 A 
ENDBRANCH  13  14
ENDBRANCH  11  13
ENDBRANCH   7  11
TORSDOF 3
ENDMDL
MODEL 5
REMARK VINA RESULT:       0.0      6.171     10.043
REMARK  3 active torsions:
REMARK  status: ('A' for Active; 'I' for Inactive)
REMARK    1  A    between atoms: C_7  and  N_11 
REMARK    2  A    between atoms: N_11  and  C_13 
REMARK    3  A    between atoms: C_13  and  C_14 
ROOT
HETATM    1  N   LIG     1      88.306  95.395  87.482  1.00  0.00    -0.207 NA
HETATM    2  N   LIG     1      88.472  93.193  88.444  1.00  0.00    -0.205 NA
HETATM    3  N   LIG     1      89.351  93.278  90.760  1.00  0.00    -0.232 N 
HETATM    4  N   LIG     1      89.765  94.217  91.652  1.00  0.00    -0.166 NA
HETATM    5  C   LIG     1      88.946  93.828  89.554  1.00  0.00     0.166 A 
HETATM    6  C   LIG     1      89.129  95.227  89.713  1.00  0.00     0.090 A 
HETATM    7  C   LIG     1      88.776  96.018  88.586  1.00  0.00     0.143 A 
HETATM    8  C   LIG     1      89.641  95.374  91.045  1.00  0.00     0.126 A 
HETATM    9  C   LIG     1      88.185  94.064  87.474  1.00  0.00     0.202 A 
HETATM   10  C   LIG     1      89.375  91.886  91.160  1.00  0.00     0.156 C 
ENDROOT
BRANCH   7  11
HETATM   11  N   LIG     1      88.866  97.412  88.498  1.00  0.00    -0.355 N 
HETATM   12  H   LIG     1      89.717  97.833  88.156  1.00  0.00     0.162 HD
BRANCH  11  13
HETATM   13  C   LIG     1      87.736  98.269  88.816  1.00  0.00     0.126 C 
BRANCH  13  14
HETATM   14  C   LIG     1      87.422  98.320  90.299  1.00  0.00    -0.000 A 
HETATM   15  C   LIG     1      88.329  98.924  91.196  1.00  0.00    -0.002 A 
HETATM   16  C   LIG     1      88.039  98.969  92.574  1.00  0.00    -0.000 A 
HETATM   17  C   LIG     1      86.842  98.407  93.060  1.00  0.00    -0.000 A 
HETATM   18  C   LIG     1      85.937  97.800  92.169  1.00  0.00    -0.000 A 
HETATM   19  C   LIG     1      86.226  97.755  90.790  1.00  0.00    -0.002 A 
ENDBRANCH  13  14
ENDBRANCH  11  13
ENDBRANCH   7  11
TORSDOF 3
ENDMDL
MODEL 6
REMARK VINA RESULT:       0.0      6.652      8.608
REMARK  3 active torsions:
REMARK  status: ('A' for Active; 'I' for Inactive)
REMARK    1  A    between atoms: C_7  and  N_11 
REMARK    2  A    between atoms: N_11  and  C_13 
REMARK    3  A    between atoms: C_13  and  C_14 
ROOT
HETATM    1  N   LIG     1      91.448  91.758  95.257  1.00  0.00    -0.207 NA
HETATM    2  N   LIG     1      93.832  91.899  95.572  1.00  0.00    -0.205 NA
HETATM    3  N   LIG     1      95.003  92.381  93.441  1.00  0.00    -0.232 N 
HETATM    4  N   LIG     1      94.684  92.594  92.137  1.00  0.00    -0.166 NA
HETATM    5  C   LIG     1      93.889  92.146  94.233  1.00  0.00     0.166 A 
HETATM    6  C   LIG     1      92.788  92.217  93.339  1.00  0.00     0.090 A 
HETATM    7  C   LIG     1      91.512  92.004  93.928  1.00  0.00     0.143 A 
HETATM    8  C   LIG     1      93.378  92.498  92.062  1.00  0.00     0.126 A 
HETATM    9  C   LIG     1      92.573  91.720  95.978  1.00  0.00     0.202 A 
HETATM   10  C   LIG     1      96.398  92.428  93.830  1.00  0.00     0.156 C 
ENDROOT
BRANCH   7  11
HETATM   11  N   LIG     1      90.282  92.024  93.260  1.00  0.00    -0.355 N 
HETATM   12  H   LIG     1      89.917  91.167  92.870  1.00  0.00     0.162 HD
BRANCH  11  13
HETATM   13  C   LIG     1      89.481  93.233  93.179  1.00  0.00     0.126 C 
BRANCH  13  14
HETATM   14  C   LIG     1      90.070  94.281  92.256  1.00  0.00    -0.000 A 
HETATM   15  C   LIG     1      90.134  94.047  90.865  1.00  0.00    -0.002 A 
HETATM   16  C   LIG     1      90.684  95.019  90.007  1.00  0.00    -0.000 A 
HETATM   17  C   LIG     1      91.175  96.228  90.537  1.00  0.00    -0.000 A 
HETATM   18  C   LIG     1      91.116  96.464  91.924  1.00  0.00    -0.000 A 
HETATM   19  C   LIG     1      90.566  95.492  92.782  1.00  0.00    -0.002 A 
ENDBRANCH  13  14
ENDBRANCH  11  13
ENDBRANCH   7  11
TORSDOF 3
ENDMDL
MODEL 7
REMARK VINA RESULT:       0.0      5.259      6.835
REMARK  3 active torsions:
REMARK  status: ('A' for Active; 'I' for Inactive)
REMARK    1  A    between atoms: C_7  and  N_11 
REMARK    2  A    between atoms: N_11  and  C_13 
REMARK    3  A    between atoms: C_13  and  C_14 
ROOT
HETATM    1  N   LIG     1      95.402  89.158  88.698  1.00  0.00    -0.207 NA
HETATM    2  N   LIG     1      96.524  90.181  90.568  1.00  0.00    -0.205 NA
HETATM    3  N   LIG     1      98.985  89.942  90.392  1.00  0.00    -0.232 N 
HETATM    4  N   LIG     1      99.891  89.399  89.535  1.00  0.00    -0.166 NA
HETATM    5  C   LIG     1      97.677  89.769  89.967  1.00  0.00     0.166 A 
HETATM    6  C   LIG     1      97.784  89.054  88.745  1.00  0.00     0.090 A 
HETATM    7  C   LIG     1      96.549  88.753  88.107  1.00  0.00     0.143 A 
HETATM    8  C   LIG     1      99.194  88.869  88.557  1.00  0.00     0.126 A 
HETATM    9  C   LIG     1      95.453  89.825  89.855  1.00  0.00     0.202 A 
HETATM   10  C   LIG     1      99.472  90.608  91.583  1.00  0.00     0.156 C 
ENDROOT
BRANCH   7  11
HETATM   11  N   LIG     1      96.393  88.062  86.900  1.00  0.00    -0.355 N 
HETATM   12  H   LIG     1      96.293  87.057  86.914  1.00  0.00     0.162 HD
BRANCH  11  13
HETATM   13  C   LIG     1      96.296  88.762  85.631  1.00  0.00     0.126 C 
BRANCH  13  14
HETATM   14  C   LIG     1      97.608  89.375  85.183  1.00  0.00    -0.000 A 
HETATM   15  C   LIG     1      98.690  88.546  84.816  1.00  0.00    -0.002 A 
HETATM   16  C   LIG     1      99.911  89.114  84.403  1.00  0.00    -0.000 A 
HETATM   17  C   LIG     1     100.054  90.515  84.357  1.00  0.00    -0.000 A 
HETATM   18  C   LIG     1      98.979  91.345  84.724  1.00  0.00    -0.000 A 
HETATM   19  C   LIG     1      97.758  90.776  85.138  1.00  0.00    -0.002 A 
ENDBRANCH  13  14
ENDBRANCH  11  13
ENDBRANCH   7  11
TORSDOF 3
ENDMDL
MODEL 8
REMARK VINA RESULT:       0.0      6.678      8.127
REMARK  3 active torsions:
REMARK  status: ('A' for Active; 'I' for Inactive)
REMARK    1  A    between atoms: C_7  and  N_11 
REMARK    2  A    between atoms: N_11  and  C_13 
REMARK    3  A    between atoms: C_13  and  C_14 
ROOT
HETATM    1  N   LIG     1      87.130  88.253  82.338  1.00  0.00    -0.207 NA
HETATM    2  N   LIG     1      89.116  88.476  83.683  1.00  0.00    -0.205 NA
HETATM    3  N   LIG     1      88.575  89.230  85.981  1.00  0.00    -0.232 N 
HETATM    4  N   LIG     1      87.472  89.552  86.708  1.00  0.00    -0.166 NA
HETATM    5  C   LIG     1      88.270  88.861  84.681  1.00  0.00     0.166 A 
HETATM    6  C   LIG     1      86.857  88.968  84.596  1.00  0.00     0.090 A 
HETATM    7  C   LIG     1      86.297  88.635  83.332  1.00  0.00     0.143 A 
HETATM    8  C   LIG     1      86.449  89.404  85.900  1.00  0.00     0.126 A 
HETATM    9  C   LIG     1      88.447  88.198  82.562  1.00  0.00     0.202 A 
HETATM   10  C   LIG     1      89.872  89.301  86.624  1.00  0.00     0.156 C 
ENDROOT
BRANCH   7  11
HETATM   11  N   LIG     1      84.937  88.662  83.000  1.00  0.00    -0.355 N 
HETATM   12  H   LIG     1      84.536  89.509  82.625  1.00  0.00     0.162 HD
BRANCH  11  13
HETATM   13  C   LIG     1      84.104  87.478  83.113  1.00  0.00     0.126 C 
BRANCH  13  14
HETATM   14  C   LIG     1      83.811  87.086  84.548  1.00  0.00    -0.000 A 
HETATM   15  C   LIG     1      83.008  87.915  85.361  1.00  0.00    -0.002 A 
HETATM   16  C   LIG     1      82.738  87.553  86.695  1.00  0.00    -0.000 A 
HETATM   17  C   LIG     1      83.273  86.361  87.222  1.00  0.00    -0.000 A 
HETATM   18  C   LIG     1      84.077  85.533  86.416  1.00  0.00    -0.000 A 
HETATM   19  C   LIG     1      84.347  85.895  85.081  1.00  0.00    -0.002 A 
ENDBRANCH  13  14
ENDBRANCH  11  13
ENDBRANCH   7  11
TORSDOF 3
ENDMDL
MODEL 9
REMARK VINA RESULT:       0.0      4.875      6.297
REMARK  3 active torsions:
REMARK  status: ('A' for Active; 'I' for Inactive)
REMARK    1  A    between atoms: C_7  and  N_11 
REMARK    2  A    between atoms: N_11  and  C_13 
REMARK    3  A    between atoms: C_13  and  C_14 
ROOT
HETATM    1  N   LIG     1      88.953  85.700  89.570  1.00  0.00    -0.207 NA
HETATM    2  N   LIG     1      90.263  87.721  89.555  1.00  0.00    -0.205 NA
HETATM    3  N   LIG     1      90.397  88.699  87.281  1.00  0.00    -0.232 N 
HETATM    4  N   LIG     1      89.938  88.423  86.032  1.00  0.00    -0.166 NA
HETATM    5  C   LIG     1      89.994  87.761  88.219  1.00  0.00     0.166 A 
HETATM    6  C   LIG     1      89.222  86.823  87.484  1.00  0.00     0.090 A 
HETATM    7  C   LIG     1      88.690  85.746  88.244  1.00  0.00     0.143 A 
HETATM    8  C   LIG     1      89.243  87.315  86.137  1.00  0.00     0.126 A 
HETATM    9  C   LIG     1      89.699  86.657  90.130  1.00  0.00     0.202 A 
HETATM   10  C   LIG     1      91.207  89.885  87.475  1.00  0.00     0.156 C 
ENDROOT
BRANCH   7  11
HETATM   11  N   LIG     1      87.901  84.700  87.750  1.00  0.00    -0.355 N 
HETATM   12  H   LIG     1      88.347  83.857  87.418  1.00  0.00     0.162 HD
BRANCH  11  13
HETATM   13  C   LIG     1      86.450  84.766  87.773  1.00  0.00     0.126 C 
BRANCH  13  14
HETATM   14  C   LIG     1      85.880  85.752  86.773  1.00  0.00    -0.000 A 
HETATM   15  C   LIG     1      85.999  85.508  85.388  1.00  0.00    -0.002 A 
HETATM   16  C   LIG     1      85.472  86.426  84.458  1.00  0.00    -0.000 A 
HETATM   17  C   LIG     1      84.825  87.592  84.911  1.00  0.00    -0.000 A 
HETATM   18  C   LIG     1      84.707  87.841  86.291  1.00  0.00    -0.000 A 
HETATM   19  C   LIG     1      85.234  86.924  87.221  1.00  0.00    -0.002 A 
ENDBRANCH  13  14
ENDBRANCH  11  13
ENDBRANCH   7  11
TORSDOF 3
ENDMDL
