MODEL 1
REMARK VINA RESULT:      -0.0      0.000      0.000
REMARK  4 active torsions:
REMARK  status: ('A' for Active; 'I' for Inactive)
REMARK    1  A    between atoms: C_4  and  C_19 
REMARK    2  A    between atoms: C_5  and  N_7 
REMARK    3  A    between atoms: C_6  and  N_8 
REMARK    4  A    between atoms: N_8  and  C_13 
ROOT
HETATM    1  N   LIG     1      97.378  87.224  83.520  1.00  0.00     0.128 NA
HETATM    2  N   LIG     1      96.918  84.897  83.083  1.00  0.00    -0.062 NA
HETATM    3  N   LIG     1      95.746  86.711  81.907  1.00  0.00    -0.185 N 
HETATM    4  C   LIG     1      95.831  85.272  82.170  1.00  0.00     0.240 C 
HETATM    5  C   LIG     1      97.575  85.845  83.679  1.00  0.00     0.734 C 
HETATM    6  C   LIG     1      96.488  87.610  82.663  1.00  0.00     0.719 C 
HETATM    7  H   LIG     1      95.053  86.999  81.232  1.00  0.00     0.181 HD
ENDROOT
BRANCH   6   8
HETATM    8  N   LIG     1      96.233  88.955  82.441  1.00  0.00    -0.188 N 
HETATM    9  H   LIG     1      96.964  89.459  81.961  1.00  0.00     0.184 HD
BRANCH   8  10
HETATM   10  C   LIG     1      95.084  89.747  82.563  1.00  0.00     0.073 A 
HETATM   11  C   LIG     1      94.149  89.450  83.577  1.00  0.00     0.018 A 
HETATM   12  C   LIG     1      92.980  90.224  83.715  1.00  0.00     0.002 A 
HETATM   13  C   LIG     1      92.736  91.295  82.833  1.00  0.00     0.000 A 
HETATM   14  C   LIG     1      93.660  91.589  81.812  1.00  0.00     0.002 A 
HETATM   15  C   LIG     1      94.829  90.815  81.675  1.00  0.00     0.018 A 
ENDBRANCH   8  10
ENDBRANCH   6   8
BRANCH   4  16
HETATM   16  C   LIG     1      94.524  84.681  82.676  1.00  0.00     0.022 A 
HETATM   17  C   LIG     1      93.446  85.537  82.996  1.00  0.00    -0.001 A 
HETATM   18  C   LIG     1      92.228  85.003  83.459  1.00  0.00    -0.000 A 
HETATM   19  C   LIG     1      92.077  83.610  83.603  1.00  0.00    -0.000 A 
HETATM   20  C   LIG     1      93.145  82.751  83.281  1.00  0.00    -0.000 A 
HETATM   21  C   LIG     1      94.364  83.284  82.817  1.00  0.00    -0.001 A 
ENDBRANCH   4  16
BRANCH   5  22
HETATM   22  N   LIG     1      98.568  85.459  84.551  1.00  0.00    -0.231 N 
HETATM   23  H   LIG     1      99.196  84.691  84.366  1.00  0.00     0.174 HD
HETATM   24  H   LIG     1      98.740  85.917  85.434  1.00  0.00     0.174 HD
ENDBRANCH   5  22
TORSDOF 4
ENDMDL
MODEL 2
REMARK VINA RESULT:      -0.0      7.990      9.604
REMARK  4 active torsions:
REMARK  status: ('A' for Active; 'I' for Inactive)
REMARK    1  A    between atoms: C_4  and  C_19 
REMARK    2  A    between atoms: C_5  and  N_7 
REMARK    3  A    between atoms: C_6  and  N_8 
REMARK    4  A    between atoms: N_8  and  C_13 
ROOT
HETATM    1  N   LIG     1      86.334  86.921  88.879  1.00  0.00     0.128 NA
HETATM    2  N   LIG     1      85.386  84.797  88.240  1.00  0.00    -0.062 NA
HETATM    3  N   LIG     1      87.650  84.996  89.179  1.00  0.00    -0.185 N 
HETATM    4  C   LIG     1      86.656  84.127  88.544  1.00  0.00     0.240 C 
HETATM    5  C   LIG     1      85.315  86.083  88.403  1.00  0.00     0.734 C 
HETATM    6  C   LIG     1      87.448  86.369  89.241  1.00  0.00     0.719 C 
HETATM    7  H   LIG     1      88.511  84.553  89.464  1.00  0.00     0.181 HD
ENDROOT
BRANCH   6   8
HETATM    8  N   LIG     1      88.504  87.124  89.727  1.00  0.00    -0.188 N 
HETATM    9  H   LIG     1      88.363  87.524  90.643  1.00  0.00     0.184 HD
BRANCH   8  10
HETATM   10  C   LIG     1      89.829  87.302  89.308  1.00  0.00     0.073 A 
HETATM   11  C   LIG     1      90.124  87.267  87.929  1.00  0.00     0.018 A 
HETATM   12  C   LIG     1      91.449  87.433  87.481  1.00  0.00     0.002 A 
HETATM   13  C   LIG     1      92.489  87.627  88.413  1.00  0.00     0.000 A 
HETATM   14  C   LIG     1      92.202  87.652  89.791  1.00  0.00     0.002 A 
HETATM   15  C   LIG     1      90.876  87.486  90.238  1.00  0.00     0.018 A 
ENDBRANCH   8  10
ENDBRANCH   6   8
BRANCH   4  16
HETATM   16  C   LIG     1      87.178  83.445  87.288  1.00  0.00     0.022 A 
HETATM   17  C   LIG     1      88.439  83.808  86.767  1.00  0.00    -0.001 A 
HETATM   18  C   LIG     1      88.937  83.181  85.609  1.00  0.00    -0.000 A 
HETATM   19  C   LIG     1      88.179  82.184  84.965  1.00  0.00    -0.000 A 
HETATM   20  C   LIG     1      86.924  81.813  85.482  1.00  0.00    -0.000 A 
HETATM   21  C   LIG     1      86.425  82.439  86.640  1.00  0.00    -0.001 A 
ENDBRANCH   4  16
BRANCH   5  22
HETATM   22  N   LIG     1      84.120  86.685  88.080  1.00  0.00    -0.231 N 
HETATM   23  H   LIG     1      83.966  87.174  87.211  1.00  0.00     0.174 HD
HETATM   24  H   LIG     1      83.314  86.679  88.687  1.00  0.00     0.174 HD
ENDBRANCH   5  22
TORSDOF 4
ENDMDL
MODEL 3
REMARK VINA RESULT:      -0.0      9.112     11.162
REMARK  4 active torsions:
REMARK  status: ('A' for Active; 'I' for Inactive)
REMARK    1  A    between atoms: C_4  and  C_19 
REMARK    2  A    between atoms: C_5  and  N_7 
REMARK    3  A    between atoms: C_6  and  N_8 
REMARK    4  A    between atoms: N_8  and  C_13 
ROOT
HETATM    1  N   LIG     1      86.334  86.921  88.879  1.00  0.00     0.128 NA
HETATM    2  N   LIG     1      84.398  85.539  89.277  1.00  0.00    -0.062 NA
HETATM    3  N   LIG     1      86.631  84.944  90.116  1.00  0.00    -0.185 N 
HETATM    4  C   LIG     1      85.242  84.525  89.922  1.00  0.00     0.240 C 
HETATM    5  C   LIG     1      84.970  86.606  88.809  1.00  0.00     0.734 C 
HETATM    6  C   LIG     1      87.110  86.100  89.511  1.00  0.00     0.719 C 
HETATM    7  H   LIG     1      87.225  84.299  90.617  1.00  0.00     0.181 HD
ENDROOT
BRANCH   6   8
HETATM    8  N   LIG     1      88.470  86.338  89.632  1.00  0.00    -0.188 N 
HETATM    9  H   LIG     1      88.722  87.102  90.241  1.00  0.00     0.184 HD
BRANCH   8  10
HETATM   10  C   LIG     1      89.608  85.620  89.241  1.00  0.00     0.073 A 
HETATM   11  C   LIG     1      89.564  84.852  88.059  1.00  0.00     0.018 A 
HETATM   12  C   LIG     1      90.691  84.112  87.649  1.00  0.00     0.002 A 
HETATM   13  C   LIG     1      91.867  84.131  88.425  1.00  0.00     0.000 A 
HETATM   14  C   LIG     1      91.913  84.887  89.612  1.00  0.00     0.002 A 
HETATM   15  C   LIG     1      90.786  85.627  90.021  1.00  0.00     0.018 A 
ENDBRANCH   8  10
ENDBRANCH   6   8
BRANCH   4  16
HETATM   16  C   LIG     1      85.116  83.211  89.165  1.00  0.00     0.022 A 
HETATM   17  C   LIG     1      86.265  82.620  88.594  1.00  0.00    -0.001 A 
HETATM   18  C   LIG     1      86.165  81.402  87.895  1.00  0.00    -0.000 A 
HETATM   19  C   LIG     1      84.916  80.763  87.765  1.00  0.00    -0.000 A 
HETATM   20  C   LIG     1      83.768  81.344  88.336  1.00  0.00    -0.000 A 
HETATM   21  C   LIG     1      83.867  82.562  89.035  1.00  0.00    -0.001 A 
ENDBRANCH   4  16
BRANCH   5  22
HETATM   22  N   LIG     1      84.155  87.523  88.184  1.00  0.00    -0.231 N 
HETATM   23  H   LIG     1      84.185  88.512  88.382  1.00  0.00     0.174 HD
HETATM   24  H   LIG     1      83.473  87.273  87.483  1.00  0.00     0.174 HD
ENDBRANCH   5  22
TORSDOF 4
ENDMDL
MODEL 4
REMARK VINA RESULT:      -0.0      7.977     10.716
REMARK  4 active torsions:
REMARK  status: ('A' for Active; 'I' for Inactive)
REMARK    1  A    between atoms: C_4  and  C_19 
REMARK    2  A    between atoms: C_5  and  N_7 
REMARK    3  A    between atoms: C_6  and  N_8 
REMARK    4  A    between atoms: N_8  and  C_13 
ROOT
HETATM    1  N   LIG     1      93.756  94.382  90.561  1.00  0.00     0.128 NA
HETATM    2  N   LIG     1      91.625  94.033  91.636  1.00  0.00    -0.062 NA
HETATM    3  N   LIG     1      92.133  93.135  89.404  1.00  0.00    -0.185 N 
HETATM    4  C   LIG     1      91.115  93.365  90.432  1.00  0.00     0.240 C 
HETATM    5  C   LIG     1      92.841  94.488  91.618  1.00  0.00     0.734 C 
HETATM    6  C   LIG     1      93.385  93.729  89.506  1.00  0.00     0.719 C 
HETATM    7  H   LIG     1      91.834  92.619  88.590  1.00  0.00     0.181 HD
ENDROOT
BRANCH   6   8
HETATM    8  N   LIG     1      94.229  93.574  88.418  1.00  0.00    -0.188 N 
HETATM    9  H   LIG     1      95.015  92.959  88.566  1.00  0.00     0.184 HD
BRANCH   8  10
HETATM   10  C   LIG     1      94.130  93.936  87.068  1.00  0.00     0.073 A 
HETATM   11  C   LIG     1      93.443  95.117  86.721  1.00  0.00     0.018 A 
HETATM   12  C   LIG     1      93.319  95.498  85.370  1.00  0.00     0.002 A 
HETATM   13  C   LIG     1      93.877  94.693  84.358  1.00  0.00     0.000 A 
HETATM   14  C   LIG     1      94.555  93.506  84.697  1.00  0.00     0.002 A 
HETATM   15  C   LIG     1      94.678  93.127  86.048  1.00  0.00     0.018 A 
ENDBRANCH   8  10
ENDBRANCH   6   8
BRANCH   4  16
HETATM   16  C   LIG     1      89.904  94.123  89.912  1.00  0.00     0.022 A 
HETATM   17  C   LIG     1      89.924  94.663  88.608  1.00  0.00    -0.001 A 
HETATM   18  C   LIG     1      88.806  95.363  88.110  1.00  0.00    -0.000 A 
HETATM   19  C   LIG     1      87.661  95.524  88.913  1.00  0.00    -0.000 A 
HETATM   20  C   LIG     1      87.632  94.983  90.213  1.00  0.00    -0.000 A 
HETATM   21  C   LIG     1      88.748  94.284  90.710  1.00  0.00    -0.001 A 
ENDBRANCH   4  16
BRANCH   5  22
HETATM   22  N   LIG     1      93.279  95.135  92.752  1.00  0.00    -0.231 N 
HETATM   23  H   LIG     1      93.015  96.082  92.982  1.00  0.00     0.174 HD
HETATM   24  H   LIG     1      93.889  94.710  93.433  1.00  0.00     0.174 HD
ENDBRANCH   5  22
TORSDOF 4
ENDMDL
MODEL 5
REMARK VINA RESULT:      -0.0      3.692      6.813
REMARK  4 active torsions:
REMARK  status: ('A' for Active; 'I' for Inactive)
REMARK    1  A    between atoms: C_4  and  C_19 
REMARK    2  A    between atoms: C_5  and  N_7 
REMARK    3  A    between atoms: C_6  and  N_8 
REMARK    4  A    between atoms: N_8  and  C_13 
ROOT
HETATM    1  N   LIG     1      90.611  86.469  83.930  1.00  0.00     0.128 NA
HETATM    2  N   LIG     1      91.963  86.941  81.989  1.00  0.00    -0.062 NA
HETATM    3  N   LIG     1      91.891  84.714  83.029  1.00  0.00    -0.185 N 
HETATM    4  C   LIG     1      92.527  85.586  82.040  1.00  0.00     0.240 C 
HETATM    5  C   LIG     1      91.100  87.282  82.897  1.00  0.00     0.734 C 
HETATM    6  C   LIG     1      91.012  85.239  83.970  1.00  0.00     0.719 C 
HETATM    7  H   LIG     1      92.207  83.756  83.047  1.00  0.00     0.181 HD
ENDROOT
BRANCH   6   8
HETATM    8  N   LIG     1      90.574  84.367  84.954  1.00  0.00    -0.188 N 
HETATM    9  H   LIG     1      89.607  84.086  84.882  1.00  0.00     0.184 HD
BRANCH   8  10
HETATM   10  C   LIG     1      91.235  83.619  85.937  1.00  0.00     0.073 A 
HETATM   11  C   LIG     1      92.403  84.142  86.530  1.00  0.00     0.018 A 
HETATM   12  C   LIG     1      93.092  83.406  87.513  1.00  0.00     0.002 A 
HETATM   13  C   LIG     1      92.620  82.137  87.903  1.00  0.00     0.000 A 
HETATM   14  C   LIG     1      91.462  81.604  87.307  1.00  0.00     0.002 A 
HETATM   15  C   LIG     1      90.772  82.342  86.324  1.00  0.00     0.018 A 
ENDBRANCH   8  10
ENDBRANCH   6   8
BRANCH   4  16
HETATM   16  C   LIG     1      94.036  85.676  82.209  1.00  0.00     0.022 A 
HETATM   17  C   LIG     1      94.651  85.088  83.336  1.00  0.00    -0.001 A 
HETATM   18  C   LIG     1      96.048  85.158  83.502  1.00  0.00    -0.000 A 
HETATM   19  C   LIG     1      96.840  85.814  82.541  1.00  0.00    -0.000 A 
HETATM   20  C   LIG     1      96.235  86.398  81.411  1.00  0.00    -0.000 A 
HETATM   21  C   LIG     1      94.839  86.328  81.244  1.00  0.00    -0.001 A 
ENDBRANCH   4  16
BRANCH   5  22
HETATM   22  N   LIG     1      90.613  88.568  82.839  1.00  0.00    -0.231 N 
HETATM   23  H   LIG     1      89.646  88.799  83.010  1.00  0.00     0.174 HD
HETATM   24  H   LIG     1      91.188  89.370  82.625  1.00  0.00     0.174 HD
ENDBRANCH   5  22
TORSDOF 4
ENDMDL
MODEL 6
REMARK VINA RESULT:      -0.0      7.982      9.914
REMARK  4 active torsions:
REMARK  status: ('A' for Active; 'I' for Inactive)
REMARK    1  A    between atoms: C_4  and  C_19 
REMARK    2  A    between atoms: C_5  and  N_7 
REMARK    3  A    between atoms: C_6  and  N_8 
REMARK    4  A    between atoms: N_8  and  C_13 
ROOT
HETATM    1  N   LIG     1      90.031  89.683  91.116  1.00  0.00     0.128 NA
HETATM    2  N   LIG     1      92.440  89.712  91.218  1.00  0.00    -0.062 NA
HETATM    3  N   LIG     1      91.116  91.751  90.847  1.00  0.00    -0.185 N 
HETATM    4  C   LIG     1      92.447  91.141  90.879  1.00  0.00     0.240 C 
HETATM    5  C   LIG     1      91.296  89.105  91.295  1.00  0.00     0.734 C 
HETATM    6  C   LIG     1      89.976  90.958  90.898  1.00  0.00     0.719 C 
HETATM    7  H   LIG     1      91.087  92.746  90.683  1.00  0.00     0.181 HD
ENDROOT
BRANCH   6   8
HETATM    8  N   LIG     1      88.766  91.609  90.715  1.00  0.00    -0.188 N 
HETATM    9  H   LIG     1      88.191  91.690  91.540  1.00  0.00     0.184 HD
BRANCH   8  10
HETATM   10  C   LIG     1      88.234  92.367  89.663  1.00  0.00     0.073 A 
HETATM   11  C   LIG     1      88.575  92.036  88.336  1.00  0.00     0.018 A 
HETATM   12  C   LIG     1      88.062  92.788  87.261  1.00  0.00     0.002 A 
HETATM   13  C   LIG     1      87.210  93.882  87.510  1.00  0.00     0.000 A 
HETATM   14  C   LIG     1      86.875  94.225  88.834  1.00  0.00     0.002 A 
HETATM   15  C   LIG     1      87.388  93.471  89.908  1.00  0.00     0.018 A 
ENDBRANCH   8  10
ENDBRANCH   6   8
BRANCH   4  16
HETATM   16  C   LIG     1      93.228  91.348  89.590  1.00  0.00     0.022 A 
HETATM   17  C   LIG     1      92.590  91.926  88.471  1.00  0.00    -0.001 A 
HETATM   18  C   LIG     1      93.302  92.128  87.272  1.00  0.00    -0.000 A 
HETATM   19  C   LIG     1      94.658  91.758  87.186  1.00  0.00    -0.000 A 
HETATM   20  C   LIG     1      95.302  91.187  88.300  1.00  0.00    -0.000 A 
HETATM   21  C   LIG     1      94.591  90.984  89.499  1.00  0.00    -0.001 A 
ENDBRANCH   4  16
BRANCH   5  22
HETATM   22  N   LIG     1      91.325  87.759  91.585  1.00  0.00    -0.231 N 
HETATM   23  H   LIG     1      91.296  87.398  92.527  1.00  0.00     0.174 HD
HETATM   24  H   LIG     1      91.375  87.040  90.879  1.00  0.00     0.174 HD
ENDBRANCH   5  22
TORSDOF 4
ENDMDL
MODEL 7
REMARK VINA RESULT:       0.0     11.169     12.126
REMARK  4 active torsions:
REMARK  status: ('A' for Active; 'I' for Inactive)
REMARK    1  A    between atoms: C_4  and  C_19 
REMARK    2  A    between atoms: C_5  and  N_7 
REMARK    3  A    between atoms: C_6  and  N_8 
REMARK    4  A    between atoms: N_8  and  C_13 
ROOT
HETATM    1  N   LIG     1      85.811  94.277  89.417  1.00  0.00     0.128 NA
HETATM    2  N   LIG     1      86.005  91.884  89.648  1.00  0.00    -0.062 NA
HETATM    3  N   LIG     1      86.925  93.096  87.717  1.00  0.00    -0.185 N 
HETATM    4  C   LIG     1      86.625  91.795  88.320  1.00  0.00     0.240 C 
HETATM    5  C   LIG     1      85.643  93.053  90.081  1.00  0.00     0.734 C 
HETATM    6  C   LIG     1      86.429  94.265  88.279  1.00  0.00     0.719 C 
HETATM    7  H   LIG     1      87.413  93.074  86.833  1.00  0.00     0.181 HD
ENDROOT
BRANCH   6   8
HETATM    8  N   LIG     1      86.641  95.431  87.560  1.00  0.00    -0.188 N 
HETATM    9  H   LIG     1      87.315  96.067  87.959  1.00  0.00     0.184 HD
BRANCH   8  10
HETATM   10  C   LIG     1      86.266  95.848  86.276  1.00  0.00     0.073 A 
HETATM   11  C   LIG     1      85.033  95.414  85.745  1.00  0.00     0.018 A 
HETATM   12  C   LIG     1      84.637  95.810  84.452  1.00  0.00     0.002 A 
HETATM   13  C   LIG     1      85.477  96.637  83.680  1.00  0.00     0.000 A 
HETATM   14  C   LIG     1      86.714  97.064  84.201  1.00  0.00     0.002 A 
HETATM   15  C   LIG     1      87.109  96.668  85.494  1.00  0.00     0.018 A 
ENDBRANCH   8  10
ENDBRANCH   6   8
BRANCH   4  16
HETATM   16  C   LIG     1      85.774  90.906  87.426  1.00  0.00     0.022 A 
HETATM   17  C   LIG     1      85.229  91.430  86.233  1.00  0.00    -0.001 A 
HETATM   18  C   LIG     1      84.444  90.617  85.393  1.00  0.00    -0.000 A 
HETATM   19  C   LIG     1      84.201  89.273  85.738  1.00  0.00    -0.000 A 
HETATM   20  C   LIG     1      84.746  88.743  86.922  1.00  0.00    -0.000 A 
HETATM   21  C   LIG     1      85.531  89.555  87.763  1.00  0.00    -0.001 A 
ENDBRANCH   4  16
BRANCH   5  22
HETATM   22  N   LIG     1      85.037  93.098  91.316  1.00  0.00    -0.231 N 
HETATM   23  H   LIG     1      85.201  93.838  91.983  1.00  0.00     0.174 HD
HETATM   24  H   LIG     1      84.387  92.398  91.641  1.00  0.00     0.174 HD
ENDBRANCH   5  22
TORSDOF 4
ENDMDL
MODEL 8
REMARK VINA RESULT:       0.0     11.410     13.393
REMARK  4 active torsions:
REMARK  status: ('A' for Active; 'I' for Inactive)
REMARK    1  A    between atoms: C_4  and  C_19 
REMARK    2  A    between atoms: C_5  and  N_7 
REMARK    3  A    between atoms: C_6  and  N_8 
REMARK    4  A    between atoms: N_8  and  C_13 
ROOT
HETATM    1  N   LIG     1      83.337  91.093  90.039  1.00  0.00     0.128 NA
HETATM    2  N   LIG     1      83.675  90.957  87.655  1.00  0.00    -0.062 NA
HETATM    3  N   LIG     1      83.819  88.985  89.117  1.00  0.00    -0.185 N 
HETATM    4  C   LIG     1      84.023  89.535  87.775  1.00  0.00     0.240 C 
HETATM    5  C   LIG     1      83.385  91.612  88.737  1.00  0.00     0.734 C 
HETATM    6  C   LIG     1      83.553  89.826  90.191  1.00  0.00     0.719 C 
HETATM    7  H   LIG     1      83.984  87.995  89.222  1.00  0.00     0.181 HD
ENDROOT
BRANCH   6   8
HETATM    8  N   LIG     1      83.520  89.231  91.443  1.00  0.00    -0.188 N 
HETATM    9  H   LIG     1      82.605  89.162  91.863  1.00  0.00     0.184 HD
BRANCH   8  10
HETATM   10  C   LIG     1      84.464  88.516  92.191  1.00  0.00     0.073 A 
HETATM   11  C   LIG     1      85.829  88.856  92.081  1.00  0.00     0.018 A 
HETATM   12  C   LIG     1      86.799  88.146  92.814  1.00  0.00     0.002 A 
HETATM   13  C   LIG     1      86.410  87.085  93.656  1.00  0.00     0.000 A 
HETATM   14  C   LIG     1      85.051  86.734  93.761  1.00  0.00     0.002 A 
HETATM   15  C   LIG     1      84.081  87.446  93.028  1.00  0.00     0.018 A 
ENDBRANCH   8  10
ENDBRANCH   6   8
BRANCH   4  16
HETATM   16  C   LIG     1      85.435  89.318  87.251  1.00  0.00     0.022 A 
HETATM   17  C   LIG     1      86.425  88.789  88.108  1.00  0.00    -0.001 A 
HETATM   18  C   LIG     1      87.735  88.577  87.634  1.00  0.00    -0.000 A 
HETATM   19  C   LIG     1      88.062  88.889  86.301  1.00  0.00    -0.000 A 
HETATM   20  C   LIG     1      87.078  89.411  85.440  1.00  0.00    -0.000 A 
HETATM   21  C   LIG     1      85.769  89.623  85.912  1.00  0.00    -0.001 A 
ENDBRANCH   4  16
BRANCH   5  22
HETATM   22  N   LIG     1      83.092  92.950  88.594  1.00  0.00    -0.231 N 
HETATM   23  H   LIG     1      82.231  93.363  88.918  1.00  0.00     0.174 HD
HETATM   24  H   LIG     1      83.717  93.611  88.157  1.00  0.00     0.174 HD
ENDBRANCH   5  22
TORSDOF 4
ENDMDL
MODEL 9
REMARK VINA RESULT:       0.0      3.490      6.334
REMARK  4 active torsions:
REMARK  status: ('A' for Active; 'I' for Inactive)
REMARK    1  A    between atoms: C_4  and  C_19 
REMARK    2  A    between atoms: C_5  and  N_7 
REMARK    3  A    between atoms: C_6  and  N_8 
REMARK    4  A    between atoms: N_8  and  C_13 
ROOT
HETATM    1  N   LIG     1      93.008  87.918  84.070  1.00  0.00     0.128 NA
HETATM    2  N   LIG     1      93.454  88.639  81.812  1.00  0.00    -0.062 NA
HETATM    3  N   LIG     1      94.485  89.721  83.765  1.00  0.00    -0.185 N 
HETATM    4  C   LIG     1      94.262  89.756  82.318  1.00  0.00     0.240 C 
HETATM    5  C   LIG     1      92.896  87.845  82.675  1.00  0.00     0.734 C 
HETATM    6  C   LIG     1      93.777  88.834  84.566  1.00  0.00     0.719 C 
HETATM    7  H   LIG     1      95.092  90.436  84.139  1.00  0.00     0.181 HD
ENDROOT
BRANCH   6   8
HETATM    8  N   LIG     1      93.947  88.973  85.935  1.00  0.00    -0.188 N 
HETATM    9  H   LIG     1      94.475  88.238  86.380  1.00  0.00     0.184 HD
BRANCH   8  10
HETATM   10  C   LIG     1      93.709  90.025  86.829  1.00  0.00     0.073 A 
HETATM   11  C   LIG     1      92.626  90.897  86.594  1.00  0.00     0.018 A 
HETATM   12  C   LIG     1      92.371  91.968  87.472  1.00  0.00     0.002 A 
HETATM   13  C   LIG     1      93.206  92.178  88.587  1.00  0.00     0.000 A 
HETATM   14  C   LIG     1      94.296  91.318  88.821  1.00  0.00     0.002 A 
HETATM   15  C   LIG     1      94.549  90.246  87.943  1.00  0.00     0.018 A 
ENDBRANCH   8  10
ENDBRANCH   6   8
BRANCH   4  16
HETATM   16  C   LIG     1      93.660  91.069  81.840  1.00  0.00     0.022 A 
HETATM   17  C   LIG     1      93.230  92.026  82.785  1.00  0.00    -0.001 A 
HETATM   18  C   LIG     1      92.676  93.249  82.357  1.00  0.00    -0.000 A 
HETATM   19  C   LIG     1      92.550  93.523  80.981  1.00  0.00    -0.000 A 
HETATM   20  C   LIG     1      92.982  92.575  80.034  1.00  0.00    -0.000 A 
HETATM   21  C   LIG     1      93.536  91.353  80.461  1.00  0.00    -0.001 A 
ENDBRANCH   4  16
BRANCH   5  22
HETATM   22  N   LIG     1      92.121  86.826  82.169  1.00  0.00    -0.231 N 
HETATM   23  H   LIG     1      92.272  85.854  82.396  1.00  0.00     0.174 HD
HETATM   24  H   LIG     1      91.347  86.977  81.539  1.00  0.00     0.174 HD
ENDBRANCH   5  22
TORSDOF 4
ENDMDL
