MODEL 1
REMARK VINA RESULT:      -0.0      0.000      0.000
REMARK  4 active torsions:
REMARK  status: ('A' for Active; 'I' for Inactive)
REMARK    1  A    between atoms: C_1  and  C_8 
REMARK    2  A    between atoms: C_1  and  C_12 
REMARK    3  A    between atoms: C_8  and  C_9 
REMARK    4  A    between atoms: C_12  and  C_13 
ROOT
HETATM    1  C   LIG     1      93.903  96.915  86.089  1.00  0.00     0.020 C 
HETATM    2  C   LIG     1      95.153  96.622  85.204  1.00  0.00     0.001 C 
HETATM    3  C   LIG     1      96.307  95.902  85.929  1.00  0.00     0.000 C 
HETATM    4  C   LIG     1      93.494  95.564  86.752  1.00  0.00     0.001 C 
HETATM    5  C   LIG     1      95.828  94.605  86.590  1.00  0.00     0.000 C 
HETATM    6  C   LIG     1      94.634  94.864  87.523  1.00  0.00     0.000 C 
HETATM    7  C   LIG     1      94.148  93.565  88.179  1.00  0.00     0.000 C 
ENDROOT
BRANCH   1   8
HETATM    8  C   LIG     1      94.303  98.030  87.122  1.00  0.00     0.098 C 
BRANCH   8   9
HETATM    9  C   LIG     1      94.122  99.494  86.689  1.00  0.00     0.185 C 
HETATM   10  O   LIG     1      95.013  99.985  85.963  1.00  0.00    -0.647 OA
HETATM   11  O   LIG     1      93.148 100.123  87.159  1.00  0.00    -0.647 OA
ENDBRANCH   8   9
ENDBRANCH   1   8
BRANCH   1  12
HETATM   12  C   LIG     1      92.804  97.416  85.086  1.00  0.00     0.098 C 
BRANCH  12  13
HETATM   13  C   LIG     1      91.335  97.139  85.442  1.00  0.00     0.185 C 
HETATM   14  O   LIG     1      90.714  96.303  84.749  1.00  0.00    -0.647 OA
HETATM   15  O   LIG     1      90.831  97.836  86.350  1.00  0.00    -0.647 OA
ENDBRANCH  12  13
ENDBRANCH   1  12
TORSDOF 4
ENDMDL
MODEL 2
REMARK VINA RESULT:      -0.0      5.219      6.998
REMARK  4 active torsions:
REMARK  status: ('A' for Active; 'I' for Inactive)
REMARK    1  A    between atoms: C_1  and  C_8 
REMARK    2  A    between atoms: C_1  and  C_12 
REMARK    3  A    between atoms: C_8  and  C_9 
REMARK    4  A    between atoms: C_12  and  C_13 
ROOT
HETATM    1  C   LIG     1      89.311  93.437  87.222  1.00  0.00     0.020 C 
HETATM    2  C   LIG     1      88.164  92.537  86.669  1.00  0.00     0.001 C 
HETATM    3  C   LIG     1      87.407  93.119  85.460  1.00  0.00     0.000 C 
HETATM    4  C   LIG     1      90.225  93.796  86.010  1.00  0.00     0.001 C 
HETATM    5  C   LIG     1      88.367  93.486  84.324  1.00  0.00     0.000 C 
HETATM    6  C   LIG     1      89.477  94.428  84.816  1.00  0.00     0.000 C 
HETATM    7  C   LIG     1      90.445  94.790  83.681  1.00  0.00     0.000 C 
ENDROOT
BRANCH   1   8
HETATM    8  C   LIG     1      88.646  94.687  87.904  1.00  0.00     0.098 C 
BRANCH   8   9
HETATM    9  C   LIG     1      88.265  94.564  89.389  1.00  0.00     0.185 C 
HETATM   10  O   LIG     1      87.196  93.975  89.653  1.00  0.00    -0.647 OA
HETATM   11  O   LIG     1      88.998  95.136  90.226  1.00  0.00    -0.647 OA
ENDBRANCH   8   9
ENDBRANCH   1   8
BRANCH   1  12
HETATM   12  C   LIG     1      90.067  92.538  88.263  1.00  0.00     0.098 C 
BRANCH  12  13
HETATM   13  C   LIG     1      91.567  92.798  88.472  1.00  0.00     0.185 C 
HETATM   14  O   LIG     1      92.372  91.932  88.063  1.00  0.00    -0.647 OA
HETATM   15  O   LIG     1      91.879  93.821  89.120  1.00  0.00    -0.647 OA
ENDBRANCH  12  13
ENDBRANCH   1  12
TORSDOF 4
ENDMDL
MODEL 3
REMARK VINA RESULT:      -0.0     10.488     12.731
REMARK  4 active torsions:
REMARK  status: ('A' for Active; 'I' for Inactive)
REMARK    1  A    between atoms: C_1  and  C_8 
REMARK    2  A    between atoms: C_1  and  C_12 
REMARK    3  A    between atoms: C_8  and  C_9 
REMARK    4  A    between atoms: C_12  and  C_13 
ROOT
HETATM    1  C   LIG     1      92.927  87.259  93.709  1.00  0.00     0.020 C 
HETATM    2  C   LIG     1      94.296  87.999  93.606  1.00  0.00     0.001 C 
HETATM    3  C   LIG     1      94.536  89.073  94.684  1.00  0.00     0.000 C 
HETATM    4  C   LIG     1      92.810  86.731  95.172  1.00  0.00     0.001 C 
HETATM    5  C   LIG     1      94.367  88.497  96.094  1.00  0.00     0.000 C 
HETATM    6  C   LIG     1      92.999  87.815  96.255  1.00  0.00     0.000 C 
HETATM    7  C   LIG     1      92.830  87.230  97.664  1.00  0.00     0.000 C 
ENDROOT
BRANCH   1   8
HETATM    8  C   LIG     1      91.802  88.284  93.315  1.00  0.00     0.098 C 
BRANCH   8   9
HETATM    9  C   LIG     1      91.433  88.394  91.827  1.00  0.00     0.185 C 
HETATM   10  O   LIG     1      92.181  89.088  91.106  1.00  0.00    -0.647 OA
HETATM   11  O   LIG     1      90.366  87.858  91.452  1.00  0.00    -0.647 OA
ENDBRANCH   8   9
ENDBRANCH   1   8
BRANCH   1  12
HETATM   12  C   LIG     1      93.025  86.078  92.680  1.00  0.00     0.098 C 
BRANCH  12  13
HETATM   13  C   LIG     1      92.225  84.801  92.982  1.00  0.00     0.185 C 
HETATM   14  O   LIG     1      92.864  83.772  93.292  1.00  0.00    -0.647 OA
HETATM   15  O   LIG     1      90.987  84.855  92.812  1.00  0.00    -0.647 OA
ENDBRANCH  12  13
ENDBRANCH   1  12
TORSDOF 4
ENDMDL
MODEL 4
REMARK VINA RESULT:      -0.0     12.602     15.204
REMARK  4 active torsions:
REMARK  status: ('A' for Active; 'I' for Inactive)
REMARK    1  A    between atoms: C_1  and  C_8 
REMARK    2  A    between atoms: C_1  and  C_12 
REMARK    3  A    between atoms: C_8  and  C_9 
REMARK    4  A    between atoms: C_12  and  C_13 
ROOT
HETATM    1  C   LIG     1      92.582  83.903  93.087  1.00  0.00     0.020 C 
HETATM    2  C   LIG     1      91.180  84.072  92.426  1.00  0.00     0.001 C 
HETATM    3  C   LIG     1      90.869  83.073  91.297  1.00  0.00     0.000 C 
HETATM    4  C   LIG     1      92.702  82.406  93.510  1.00  0.00     0.001 C 
HETATM    5  C   LIG     1      91.044  81.625  91.768  1.00  0.00     0.000 C 
HETATM    6  C   LIG     1      92.441  81.401  92.367  1.00  0.00     0.000 C 
HETATM    7  C   LIG     1      92.616  79.954  92.849  1.00  0.00     0.000 C 
ENDROOT
BRANCH   1   8
HETATM    8  C   LIG     1      93.660  84.350  92.034  1.00  0.00     0.098 C 
BRANCH   8   9
HETATM    9  C   LIG     1      94.048  85.837  92.006  1.00  0.00     0.185 C 
HETATM   10  O   LIG     1      93.278  86.613  91.400  1.00  0.00    -0.647 OA
HETATM   11  O   LIG     1      95.146  86.161  92.511  1.00  0.00    -0.647 OA
ENDBRANCH   8   9
ENDBRANCH   1   8
BRANCH   1  12
HETATM   12  C   LIG     1      92.560  84.851  94.337  1.00  0.00     0.098 C 
BRANCH  12  13
HETATM   13  C   LIG     1      93.417  84.453  95.549  1.00  0.00     0.185 C 
HETATM   14  O   LIG     1      92.824  84.083  96.586  1.00  0.00    -0.647 OA
HETATM   15  O   LIG     1      94.653  84.611  95.444  1.00  0.00    -0.647 OA
ENDBRANCH  12  13
ENDBRANCH   1  12
TORSDOF 4
ENDMDL
MODEL 5
REMARK VINA RESULT:      -0.0     10.338     12.681
REMARK  4 active torsions:
REMARK  status: ('A' for Active; 'I' for Inactive)
REMARK    1  A    between atoms: C_1  and  C_8 
REMARK    2  A    between atoms: C_1  and  C_12 
REMARK    3  A    between atoms: C_8  and  C_9 
REMARK    4  A    between atoms: C_12  and  C_13 
ROOT
HETATM    1  C   LIG     1      94.829  85.409  84.221  1.00  0.00     0.020 C 
HETATM    2  C   LIG     1      96.141  85.861  83.511  1.00  0.00     0.001 C 
HETATM    3  C   LIG     1      95.951  86.915  82.403  1.00  0.00     0.000 C 
HETATM    4  C   LIG     1      94.103  86.706  84.693  1.00  0.00     0.001 C 
HETATM    5  C   LIG     1      95.198  88.143  82.925  1.00  0.00     0.000 C 
HETATM    6  C   LIG     1      93.864  87.744  83.575  1.00  0.00     0.000 C 
HETATM    7  C   LIG     1      93.112  88.972  84.106  1.00  0.00     0.000 C 
ENDROOT
BRANCH   1   8
HETATM    8  C   LIG     1      93.999  84.561  83.189  1.00  0.00     0.098 C 
BRANCH   8   9
HETATM    9  C   LIG     1      94.278  83.051  83.128  1.00  0.00     0.185 C 
HETATM   10  O   LIG     1      95.278  82.684  82.474  1.00  0.00    -0.647 OA
HETATM   11  O   LIG     1      93.443  82.283  83.657  1.00  0.00    -0.647 OA
ENDBRANCH   8   9
ENDBRANCH   1   8
BRANCH   1  12
HETATM   12  C   LIG     1      95.303  84.542  85.440  1.00  0.00     0.098 C 
BRANCH  12  13
HETATM   13  C   LIG     1      94.409  84.520  86.690  1.00  0.00     0.185 C 
HETATM   14  O   LIG     1      94.832  85.092  87.719  1.00  0.00    -0.647 OA
HETATM   15  O   LIG     1      93.354  83.854  86.619  1.00  0.00    -0.647 OA
ENDBRANCH  12  13
ENDBRANCH   1  12
TORSDOF 4
ENDMDL
MODEL 6
REMARK VINA RESULT:      -0.0     13.727     15.977
REMARK  4 active torsions:
REMARK  status: ('A' for Active; 'I' for Inactive)
REMARK    1  A    between atoms: C_1  and  C_8 
REMARK    2  A    between atoms: C_1  and  C_12 
REMARK    3  A    between atoms: C_8  and  C_9 
REMARK    4  A    between atoms: C_12  and  C_13 
ROOT
HETATM    1  C   LIG     1      87.963  83.343  90.951  1.00  0.00     0.020 C 
HETATM    2  C   LIG     1      88.533  84.197  89.777  1.00  0.00     0.001 C 
HETATM    3  C   LIG     1      89.620  85.211  90.180  1.00  0.00     0.000 C 
HETATM    4  C   LIG     1      89.187  82.710  91.683  1.00  0.00     0.001 C 
HETATM    5  C   LIG     1      90.771  84.529  90.927  1.00  0.00     0.000 C 
HETATM    6  C   LIG     1      90.254  83.730  92.134  1.00  0.00     0.000 C 
HETATM    7  C   LIG     1      91.405  83.039  92.879  1.00  0.00     0.000 C 
ENDROOT
BRANCH   1   8
HETATM    8  C   LIG     1      87.108  84.298  91.861  1.00  0.00     0.098 C 
BRANCH   8   9
HETATM    9  C   LIG     1      85.624  84.477  91.503  1.00  0.00     0.185 C 
HETATM   10  O   LIG     1      85.356  85.277  90.581  1.00  0.00    -0.647 OA
HETATM   11  O   LIG     1      84.780  83.883  92.209  1.00  0.00    -0.647 OA
ENDBRANCH   8   9
ENDBRANCH   1   8
BRANCH   1  12
HETATM   12  C   LIG     1      87.077  82.246  90.263  1.00  0.00     0.098 C 
BRANCH  12  13
HETATM   13  C   LIG     1      86.939  80.891  90.975  1.00  0.00     0.185 C 
HETATM   14  O   LIG     1      87.492  79.898  90.452  1.00  0.00    -0.647 OA
HETATM   15  O   LIG     1      86.207  80.855  91.988  1.00  0.00    -0.647 OA
ENDBRANCH  12  13
ENDBRANCH   1  12
TORSDOF 4
ENDMDL
MODEL 7
REMARK VINA RESULT:       0.0     13.227     15.165
REMARK  4 active torsions:
REMARK  status: ('A' for Active; 'I' for Inactive)
REMARK    1  A    between atoms: C_1  and  C_8 
REMARK    2  A    between atoms: C_1  and  C_12 
REMARK    3  A    between atoms: C_8  and  C_9 
REMARK    4  A    between atoms: C_12  and  C_13 
ROOT
HETATM    1  C   LIG     1      91.344  82.773  85.590  1.00  0.00     0.020 C 
HETATM    2  C   LIG     1      92.766  83.410  85.644  1.00  0.00     0.001 C 
HETATM    3  C   LIG     1      92.884  84.793  84.977  1.00  0.00     0.000 C 
HETATM    4  C   LIG     1      90.352  83.838  86.152  1.00  0.00     0.001 C 
HETATM    5  C   LIG     1      91.857  85.777  85.548  1.00  0.00     0.000 C 
HETATM    6  C   LIG     1      90.431  85.211  85.451  1.00  0.00     0.000 C 
HETATM    7  C   LIG     1      89.402  86.191  86.030  1.00  0.00     0.000 C 
ENDROOT
BRANCH   1   8
HETATM    8  C   LIG     1      91.060  82.371  84.097  1.00  0.00     0.098 C 
BRANCH   8   9
HETATM    9  C   LIG     1      91.512  80.974  83.641  1.00  0.00     0.185 C 
HETATM   10  O   LIG     1      92.718  80.836  83.346  1.00  0.00    -0.647 OA
HETATM   11  O   LIG     1      90.633  80.093  83.511  1.00  0.00    -0.647 OA
ENDBRANCH   8   9
ENDBRANCH   1   8
BRANCH   1  12
HETATM   12  C   LIG     1      91.425  81.516  86.526  1.00  0.00     0.098 C 
BRANCH  12  13
HETATM   13  C   LIG     1      90.138  81.076  87.243  1.00  0.00     0.185 C 
HETATM   14  O   LIG     1      90.079  81.231  88.483  1.00  0.00    -0.647 OA
HETATM   15  O   LIG     1      89.268  80.509  86.546  1.00  0.00    -0.647 OA
ENDBRANCH  12  13
ENDBRANCH   1  12
TORSDOF 4
ENDMDL
MODEL 8
REMARK VINA RESULT:       0.0     12.063     14.487
REMARK  4 active torsions:
REMARK  status: ('A' for Active; 'I' for Inactive)
REMARK    1  A    between atoms: C_1  and  C_8 
REMARK    2  A    between atoms: C_1  and  C_12 
REMARK    3  A    between atoms: C_8  and  C_9 
REMARK    4  A    between atoms: C_12  and  C_13 
ROOT
HETATM    1  C   LIG     1      90.535  83.729  90.704  1.00  0.00     0.020 C 
HETATM    2  C   LIG     1      89.808  82.619  91.522  1.00  0.00     0.001 C 
HETATM    3  C   LIG     1      90.459  81.225  91.448  1.00  0.00     0.000 C 
HETATM    4  C   LIG     1      92.032  83.702  91.140  1.00  0.00     0.001 C 
HETATM    5  C   LIG     1      91.937  81.278  91.851  1.00  0.00     0.000 C 
HETATM    6  C   LIG     1      92.704  82.317  91.018  1.00  0.00     0.000 C 
HETATM    7  C   LIG     1      94.182  82.378  91.426  1.00  0.00     0.000 C 
ENDROOT
BRANCH   1   8
HETATM    8  C   LIG     1      90.315  83.415  89.179  1.00  0.00     0.098 C 
BRANCH   8   9
HETATM    9  C   LIG     1      89.057  83.993  88.511  1.00  0.00     0.185 C 
HETATM   10  O   LIG     1      87.985  83.377  88.691  1.00  0.00    -0.647 OA
HETATM   11  O   LIG     1      89.200  84.987  87.763  1.00  0.00    -0.647 OA
ENDBRANCH   8   9
ENDBRANCH   1   8
BRANCH   1  12
HETATM   12  C   LIG     1      89.839  85.070  91.129  1.00  0.00     0.098 C 
BRANCH  12  13
HETATM   13  C   LIG     1      90.682  86.354  91.091  1.00  0.00     0.185 C 
HETATM   14  O   LIG     1      90.988  86.883  92.182  1.00  0.00    -0.647 OA
HETATM   15  O   LIG     1      90.931  86.834  89.963  1.00  0.00    -0.647 OA
ENDBRANCH  12  13
ENDBRANCH   1  12
TORSDOF 4
ENDMDL
MODEL 9
REMARK VINA RESULT:       0.0     11.729     13.770
REMARK  4 active torsions:
REMARK  status: ('A' for Active; 'I' for Inactive)
REMARK    1  A    between atoms: C_1  and  C_8 
REMARK    2  A    between atoms: C_1  and  C_12 
REMARK    3  A    between atoms: C_8  and  C_9 
REMARK    4  A    between atoms: C_12  and  C_13 
ROOT
HETATM    1  C   LIG     1      92.177  85.695  92.226  1.00  0.00     0.020 C 
HETATM    2  C   LIG     1      91.763  87.195  92.327  1.00  0.00     0.001 C 
HETATM    3  C   LIG     1      90.248  87.458  92.235  1.00  0.00     0.000 C 
HETATM    4  C   LIG     1      91.331  84.923  93.285  1.00  0.00     0.001 C 
HETATM    5  C   LIG     1      89.475  86.640  93.275  1.00  0.00     0.000 C 
HETATM    6  C   LIG     1      89.807  85.143  93.164  1.00  0.00     0.000 C 
HETATM    7  C   LIG     1      89.041  84.323  94.210  1.00  0.00     0.000 C 
ENDROOT
BRANCH   1   8
HETATM    8  C   LIG     1      91.917  85.228  90.748  1.00  0.00     0.098 C 
BRANCH   8   9
HETATM    9  C   LIG     1      93.054  85.428  89.732  1.00  0.00     0.185 C 
HETATM   10  O   LIG     1      93.184  86.571  89.244  1.00  0.00    -0.647 OA
HETATM   11  O   LIG     1      93.715  84.421  89.394  1.00  0.00    -0.647 OA
ENDBRANCH   8   9
ENDBRANCH   1   8
BRANCH   1  12
HETATM   12  C   LIG     1      93.705  85.670  92.586  1.00  0.00     0.098 C 
BRANCH  12  13
HETATM   13  C   LIG     1      94.261  84.399  93.247  1.00  0.00     0.185 C 
HETATM   14  O   LIG     1      94.607  84.470  94.446  1.00  0.00    -0.647 OA
HETATM   15  O   LIG     1      94.412  83.398  92.512  1.00  0.00    -0.647 OA
ENDBRANCH  12  13
ENDBRANCH   1  12
TORSDOF 4
ENDMDL
