MODEL 1
REMARK VINA RESULT:      -0.0      0.000      0.000
REMARK  4 active torsions:
REMARK  status: ('A' for Active; 'I' for Inactive)
REMARK    1  A    between atoms: N_1  and  C_20 
REMARK    2  A    between atoms: C_20  and  C_21 
REMARK    3  A    between atoms: C_21  and  O_22 
REMARK    4  A    between atoms: O_22  and  C_23 
ROOT
HETATM    1  N   LIG     1      93.445  87.750  87.023  1.00  0.00    -0.308 N 
HETATM    2  N   LIG     1      93.912  90.073  85.540  1.00  0.00    -0.236 NA
HETATM    3  N   LIG     1      93.061  89.110  88.939  1.00  0.00    -0.173 NA
HETATM    4  O   LIG     1      93.676  92.581  86.852  1.00  0.00    -0.265 OA
HETATM    5  N   LIG     1      93.189  91.476  88.773  1.00  0.00    -0.272 N 
HETATM    6  H   LIG     1      93.111  92.365  89.243  1.00  0.00     0.174 HD
HETATM    7  O   LIG     1      92.702  90.522  90.726  1.00  0.00    -0.244 OA
HETATM    8  C   LIG     1      94.064  86.365  85.020  1.00  0.00     0.014 A 
HETATM    9  C   LIG     1      93.847  87.607  85.672  1.00  0.00     0.079 A 
HETATM   10  C   LIG     1      94.456  86.315  83.666  1.00  0.00    -0.024 A 
HETATM   11  C   LIG     1      94.058  88.808  84.942  1.00  0.00     0.097 A 
HETATM   12  C   LIG     1      94.642  87.515  82.943  1.00  0.00    -0.024 A 
HETATM   13  C   LIG     1      94.446  88.752  83.589  1.00  0.00     0.016 A 
HETATM   14  C   LIG     1      92.971  90.375  89.537  1.00  0.00     0.350 A 
HETATM   15  C   LIG     1      93.353  88.987  87.675  1.00  0.00     0.171 A 
HETATM   16  C   LIG     1      93.614  90.181  86.780  1.00  0.00     0.171 A 
HETATM   17  C   LIG     1      93.499  91.525  87.457  1.00  0.00     0.282 A 
HETATM   18  C   LIG     1      94.673  84.965  83.005  1.00  0.00     0.031 C 
HETATM   19  C   LIG     1      95.062  87.496  81.484  1.00  0.00     0.031 C 
ENDROOT
BRANCH   1  20
HETATM   20  C   LIG     1      93.161  86.508  87.754  1.00  0.00     0.140 C 
BRANCH  20  21
HETATM   21  C   LIG     1      91.654  86.244  87.876  1.00  0.00     0.176 C 
BRANCH  21  22
HETATM   22  O   LIG     1      91.263  85.314  86.880  1.00  0.00    -0.300 OA
BRANCH  22  23
HETATM   23  C   LIG     1      90.571  85.741  85.814  1.00  0.00     0.273 C 
HETATM   24  C   LIG     1      90.693  84.796  84.625  1.00  0.00     0.106 C 
HETATM   25  O   LIG     1      89.899  86.769  85.751  1.00  0.00    -0.264 OA
ENDBRANCH  22  23
ENDBRANCH  21  22
ENDBRANCH  20  21
ENDBRANCH   1  20
TORSDOF 4
ENDMDL
MODEL 2
REMARK VINA RESULT:      -0.0      3.842      5.878
REMARK  4 active torsions:
REMARK  status: ('A' for Active; 'I' for Inactive)
REMARK    1  A    between atoms: N_1  and  C_20 
REMARK    2  A    between atoms: C_20  and  C_21 
REMARK    3  A    between atoms: C_21  and  O_22 
REMARK    4  A    between atoms: O_22  and  C_23 
ROOT
HETATM    1  N   LIG     1      94.552  91.472  90.352  1.00  0.00    -0.308 N 
HETATM    2  N   LIG     1      95.246  90.997  87.686  1.00  0.00    -0.236 NA
HETATM    3  N   LIG     1      95.621  93.594  90.200  1.00  0.00    -0.173 NA
HETATM    4  O   LIG     1      96.648  93.025  86.276  1.00  0.00    -0.265 OA
HETATM    5  N   LIG     1      96.624  94.285  88.162  1.00  0.00    -0.272 N 
HETATM    6  H   LIG     1      97.128  95.005  87.666  1.00  0.00     0.174 HD
HETATM    7  O   LIG     1      96.677  95.627  89.940  1.00  0.00    -0.244 OA
HETATM    8  C   LIG     1      93.623  89.143  90.510  1.00  0.00     0.014 A 
HETATM    9  C   LIG     1      94.238  90.206  89.799  1.00  0.00     0.079 A 
HETATM   10  C   LIG     1      93.338  87.915  89.876  1.00  0.00    -0.024 A 
HETATM   11  C   LIG     1      94.588  90.005  88.436  1.00  0.00     0.097 A 
HETATM   12  C   LIG     1      93.672  87.733  88.515  1.00  0.00    -0.024 A 
HETATM   13  C   LIG     1      94.298  88.778  87.807  1.00  0.00     0.016 A 
HETATM   14  C   LIG     1      96.325  94.553  89.459  1.00  0.00     0.350 A 
HETATM   15  C   LIG     1      95.264  92.461  89.662  1.00  0.00     0.171 A 
HETATM   16  C   LIG     1      95.582  92.109  88.224  1.00  0.00     0.171 A 
HETATM   17  C   LIG     1      96.331  93.171  87.456  1.00  0.00     0.282 A 
HETATM   18  C   LIG     1      92.676  86.805  90.672  1.00  0.00     0.031 C 
HETATM   19  C   LIG     1      93.376  86.425  87.803  1.00  0.00     0.031 C 
ENDROOT
BRANCH   1  20
HETATM   20  C   LIG     1      94.126  91.701  91.740  1.00  0.00     0.140 C 
BRANCH  20  21
HETATM   21  C   LIG     1      92.857  92.561  91.818  1.00  0.00     0.176 C 
BRANCH  21  22
HETATM   22  O   LIG     1      91.734  91.715  92.001  1.00  0.00    -0.300 OA
BRANCH  22  23
HETATM   23  C   LIG     1      90.895  91.500  90.977  1.00  0.00     0.273 C 
HETATM   24  C   LIG     1      90.096  90.214  91.139  1.00  0.00     0.106 C 
HETATM   25  O   LIG     1      90.749  92.229  89.995  1.00  0.00    -0.264 OA
ENDBRANCH  22  23
ENDBRANCH  21  22
ENDBRANCH  20  21
ENDBRANCH   1  20
TORSDOF 4
ENDMDL
MODEL 3
REMARK VINA RESULT:      -0.0      2.924      6.064
REMARK  4 active torsions:
REMARK  status: ('A' for Active; 'I' for Inactive)
REMARK    1  A    between atoms: N_1  and  C_20 
REMARK    2  A    between atoms: C_20  and  C_21 
REMARK    3  A    between atoms: C_21  and  O_22 
REMARK    4  A    between atoms: O_22  and  C_23 
ROOT
HETATM    1  N   LIG     1      90.625  87.212  86.658  1.00  0.00    -0.308 N 
HETATM    2  N   LIG     1      93.387  87.624  86.531  1.00  0.00    -0.236 NA
HETATM    3  N   LIG     1      90.777  85.915  84.667  1.00  0.00    -0.173 NA
HETATM    4  O   LIG     1      94.835  86.412  84.409  1.00  0.00    -0.265 OA
HETATM    5  N   LIG     1      92.883  85.565  83.625  1.00  0.00    -0.272 N 
HETATM    6  H   LIG     1      93.393  85.138  82.866  1.00  0.00     0.174 HD
HETATM    7  O   LIG     1      91.041  84.673  82.743  1.00  0.00    -0.244 OA
HETATM    8  C   LIG     1      90.500  88.757  88.635  1.00  0.00     0.014 A 
HETATM    9  C   LIG     1      91.214  88.065  87.622  1.00  0.00     0.079 A 
HETATM   10  C   LIG     1      91.170  89.583  89.562  1.00  0.00    -0.024 A 
HETATM   11  C   LIG     1      92.623  88.238  87.540  1.00  0.00     0.097 A 
HETATM   12  C   LIG     1      92.574  89.731  89.484  1.00  0.00    -0.024 A 
HETATM   13  C   LIG     1      93.288  89.061  88.471  1.00  0.00     0.016 A 
HETATM   14  C   LIG     1      91.542  85.352  83.635  1.00  0.00     0.350 A 
HETATM   15  C   LIG     1      91.337  86.635  85.599  1.00  0.00     0.171 A 
HETATM   16  C   LIG     1      92.826  86.911  85.628  1.00  0.00     0.171 A 
HETATM   17  C   LIG     1      93.616  86.280  84.507  1.00  0.00     0.282 A 
HETATM   18  C   LIG     1      90.368  90.302  90.632  1.00  0.00     0.031 C 
HETATM   19  C   LIG     1      93.326  90.610  90.468  1.00  0.00     0.031 C 
ENDROOT
BRANCH   1  20
HETATM   20  C   LIG     1      89.180  86.980  86.789  1.00  0.00     0.140 C 
BRANCH  20  21
HETATM   21  C   LIG     1      88.870  85.618  87.424  1.00  0.00     0.176 C 
BRANCH  21  22
HETATM   22  O   LIG     1      88.593  85.801  88.802  1.00  0.00    -0.300 OA
BRANCH  22  23
HETATM   23  C   LIG     1      89.505  85.431  89.714  1.00  0.00     0.273 C 
HETATM   24  C   LIG     1      89.323  86.151  91.044  1.00  0.00     0.106 C 
HETATM   25  O   LIG     1      90.405  84.609  89.546  1.00  0.00    -0.264 OA
ENDBRANCH  22  23
ENDBRANCH  21  22
ENDBRANCH  20  21
ENDBRANCH   1  20
TORSDOF 4
ENDMDL
MODEL 4
REMARK VINA RESULT:      -0.0      8.957     10.244
REMARK  4 active torsions:
REMARK  status: ('A' for Active; 'I' for Inactive)
REMARK    1  A    between atoms: N_1  and  C_20 
REMARK    2  A    between atoms: C_20  and  C_21 
REMARK    3  A    between atoms: C_21  and  O_22 
REMARK    4  A    between atoms: O_22  and  C_23 
ROOT
HETATM    1  N   LIG     1      87.737  91.999  91.738  1.00  0.00    -0.308 N 
HETATM    2  N   LIG     1      86.099  93.975  90.631  1.00  0.00    -0.236 NA
HETATM    3  N   LIG     1      89.507  93.589  91.834  1.00  0.00    -0.173 NA
HETATM    4  O   LIG     1      87.183  96.575  90.264  1.00  0.00    -0.265 OA
HETATM    5  N   LIG     1      89.154  95.818  91.094  1.00  0.00    -0.272 N 
HETATM    6  H   LIG     1      89.544  96.739  90.960  1.00  0.00     0.174 HD
HETATM    7  O   LIG     1      91.145  95.210  91.887  1.00  0.00    -0.244 OA
HETATM    8  C   LIG     1      85.899  90.317  91.419  1.00  0.00     0.014 A 
HETATM    9  C   LIG     1      86.431  91.629  91.334  1.00  0.00     0.079 A 
HETATM   10  C   LIG     1      84.580  90.039  91.001  1.00  0.00    -0.024 A 
HETATM   11  C   LIG     1      85.619  92.663  90.792  1.00  0.00     0.097 A 
HETATM   12  C   LIG     1      83.774  91.079  90.483  1.00  0.00    -0.024 A 
HETATM   13  C   LIG     1      84.302  92.381  90.379  1.00  0.00     0.016 A 
HETATM   14  C   LIG     1      89.991  94.887  91.618  1.00  0.00     0.350 A 
HETATM   15  C   LIG     1      88.278  93.275  91.534  1.00  0.00     0.171 A 
HETATM   16  C   LIG     1      87.306  94.273  90.939  1.00  0.00     0.171 A 
HETATM   17  C   LIG     1      87.861  95.661  90.731  1.00  0.00     0.282 A 
HETATM   18  C   LIG     1      84.048  88.622  91.113  1.00  0.00     0.031 C 
HETATM   19  C   LIG     1      82.350  90.814  90.026  1.00  0.00     0.031 C 
ENDROOT
BRANCH   1  20
HETATM   20  C   LIG     1      88.550  90.945  92.361  1.00  0.00     0.140 C 
BRANCH  20  21
HETATM   21  C   LIG     1      88.599  91.083  93.889  1.00  0.00     0.176 C 
BRANCH  21  22
HETATM   22  O   LIG     1      87.661  90.191  94.466  1.00  0.00    -0.300 OA
BRANCH  22  23
HETATM   23  C   LIG     1      86.521  90.676  94.983  1.00  0.00     0.273 C 
HETATM   24  C   LIG     1      85.425  89.622  95.063  1.00  0.00     0.106 C 
HETATM   25  O   LIG     1      86.332  91.830  95.365  1.00  0.00    -0.264 OA
ENDBRANCH  22  23
ENDBRANCH  21  22
ENDBRANCH  20  21
ENDBRANCH   1  20
TORSDOF 4
ENDMDL
MODEL 5
REMARK VINA RESULT:      -0.0      6.891     10.142
REMARK  4 active torsions:
REMARK  status: ('A' for Active; 'I' for Inactive)
REMARK    1  A    between atoms: N_1  and  C_20 
REMARK    2  A    between atoms: C_20  and  C_21 
REMARK    3  A    between atoms: C_21  and  O_22 
REMARK    4  A    between atoms: O_22  and  C_23 
ROOT
HETATM    1  N   LIG     1      89.124  93.655  91.754  1.00  0.00    -0.308 N 
HETATM    2  N   LIG     1      89.071  96.290  92.685  1.00  0.00    -0.236 NA
HETATM    3  N   LIG     1      86.801  93.832  91.264  1.00  0.00    -0.173 NA
HETATM    4  O   LIG     1      86.617  97.716  92.556  1.00  0.00    -0.265 OA
HETATM    5  N   LIG     1      85.642  95.862  91.684  1.00  0.00    -0.272 N 
HETATM    6  H   LIG     1      84.767  96.364  91.643  1.00  0.00     0.174 HD
HETATM    7  O   LIG     1      84.556  94.117  90.824  1.00  0.00    -0.244 OA
HETATM    8  C   LIG     1      91.521  93.462  92.482  1.00  0.00     0.014 A 
HETATM    9  C   LIG     1      90.310  94.183  92.320  1.00  0.00     0.079 A 
HETATM   10  C   LIG     1      92.659  94.072  93.050  1.00  0.00    -0.024 A 
HETATM   11  C   LIG     1      90.253  95.532  92.767  1.00  0.00     0.097 A 
HETATM   12  C   LIG     1      92.598  95.419  93.472  1.00  0.00    -0.024 A 
HETATM   13  C   LIG     1      91.393  96.137  93.330  1.00  0.00     0.016 A 
HETATM   14  C   LIG     1      85.616  94.580  91.238  1.00  0.00     0.350 A 
HETATM   15  C   LIG     1      87.910  94.351  91.713  1.00  0.00     0.171 A 
HETATM   16  C   LIG     1      87.991  95.772  92.231  1.00  0.00     0.171 A 
HETATM   17  C   LIG     1      86.697  96.548  92.177  1.00  0.00     0.282 A 
HETATM   18  C   LIG     1      93.937  93.265  93.202  1.00  0.00     0.031 C 
HETATM   19  C   LIG     1      93.806  96.106  94.085  1.00  0.00     0.031 C 
ENDROOT
BRANCH   1  20
HETATM   20  C   LIG     1      89.207  92.284  91.230  1.00  0.00     0.140 C 
BRANCH  20  21
HETATM   21  C   LIG     1      89.331  92.258  89.701  1.00  0.00     0.176 C 
BRANCH  21  22
HETATM   22  O   LIG     1      90.693  92.084  89.348  1.00  0.00    -0.300 OA
BRANCH  22  23
HETATM   23  C   LIG     1      91.388  93.124  88.865  1.00  0.00     0.273 C 
HETATM   24  C   LIG     1      92.891  92.952  89.042  1.00  0.00     0.106 C 
HETATM   25  O   LIG     1      90.914  94.126  88.330  1.00  0.00    -0.264 OA
ENDBRANCH  22  23
ENDBRANCH  21  22
ENDBRANCH  20  21
ENDBRANCH   1  20
TORSDOF 4
ENDMDL
MODEL 6
REMARK VINA RESULT:      -0.0      3.670      4.872
REMARK  4 active torsions:
REMARK  status: ('A' for Active; 'I' for Inactive)
REMARK    1  A    between atoms: N_1  and  C_20 
REMARK    2  A    between atoms: C_20  and  C_21 
REMARK    3  A    between atoms: C_21  and  O_22 
REMARK    4  A    between atoms: O_22  and  C_23 
ROOT
HETATM    1  N   LIG     1      90.167  86.211  89.511  1.00  0.00    -0.308 N 
HETATM    2  N   LIG     1      89.775  88.952  89.132  1.00  0.00    -0.236 NA
HETATM    3  N   LIG     1      89.453  86.471  91.767  1.00  0.00    -0.173 NA
HETATM    4  O   LIG     1      88.795  90.488  91.311  1.00  0.00    -0.265 OA
HETATM    5  N   LIG     1      88.791  88.604  92.574  1.00  0.00    -0.272 N 
HETATM    6  H   LIG     1      88.449  89.147  93.353  1.00  0.00     0.174 HD
HETATM    7  O   LIG     1      88.739  86.835  93.929  1.00  0.00    -0.244 OA
HETATM    8  C   LIG     1      91.107  86.040  87.187  1.00  0.00     0.014 A 
HETATM    9  C   LIG     1      90.528  86.767  88.259  1.00  0.00     0.079 A 
HETATM   10  C   LIG     1      91.427  86.674  85.968  1.00  0.00    -0.024 A 
HETATM   11  C   LIG     1      90.297  88.160  88.094  1.00  0.00     0.097 A 
HETATM   12  C   LIG     1      91.175  88.055  85.807  1.00  0.00    -0.024 A 
HETATM   13  C   LIG     1      90.616  88.787  86.873  1.00  0.00     0.016 A 
HETATM   14  C   LIG     1      88.983  87.281  92.810  1.00  0.00     0.350 A 
HETATM   15  C   LIG     1      89.707  86.974  90.592  1.00  0.00     0.171 A 
HETATM   16  C   LIG     1      89.519  88.444  90.278  1.00  0.00     0.171 A 
HETATM   17  C   LIG     1      89.003  89.281  91.424  1.00  0.00     0.282 A 
HETATM   18  C   LIG     1      92.042  85.857  84.845  1.00  0.00     0.031 C 
HETATM   19  C   LIG     1      91.506  88.767  84.507  1.00  0.00     0.031 C 
ENDROOT
BRANCH   1  20
HETATM   20  C   LIG     1      90.342  84.759  89.653  1.00  0.00     0.140 C 
BRANCH  20  21
HETATM   21  C   LIG     1      89.013  84.004  89.522  1.00  0.00     0.176 C 
BRANCH  21  22
HETATM   22  O   LIG     1      88.899  83.491  88.205  1.00  0.00    -0.300 OA
BRANCH  22  23
HETATM   23  C   LIG     1      88.053  84.073  87.341  1.00  0.00     0.273 C 
HETATM   24  C   LIG     1      88.418  83.789  85.890  1.00  0.00     0.106 C 
HETATM   25  O   LIG     1      87.079  84.765  87.635  1.00  0.00    -0.264 OA
ENDBRANCH  22  23
ENDBRANCH  21  22
ENDBRANCH  20  21
ENDBRANCH   1  20
TORSDOF 4
ENDMDL
MODEL 7
REMARK VINA RESULT:       0.0      8.111     10.873
REMARK  4 active torsions:
REMARK  status: ('A' for Active; 'I' for Inactive)
REMARK    1  A    between atoms: N_1  and  C_20 
REMARK    2  A    between atoms: C_20  and  C_21 
REMARK    3  A    between atoms: C_21  and  O_22 
REMARK    4  A    between atoms: O_22  and  C_23 
ROOT
HETATM    1  N   LIG     1      86.117  93.950  89.579  1.00  0.00    -0.308 N 
HETATM    2  N   LIG     1      86.279  96.505  90.702  1.00  0.00    -0.236 NA
HETATM    3  N   LIG     1      84.122  94.619  88.465  1.00  0.00    -0.173 NA
HETATM    4  O   LIG     1      84.286  98.409  90.014  1.00  0.00    -0.265 OA
HETATM    5  N   LIG     1      83.289  96.828  88.727  1.00  0.00    -0.272 N 
HETATM    6  H   LIG     1      82.576  97.500  88.485  1.00  0.00     0.174 HD
HETATM    7  O   LIG     1      82.205  95.376  87.431  1.00  0.00    -0.244 OA
HETATM    8  C   LIG     1      88.106  93.242  90.940  1.00  0.00     0.014 A 
HETATM    9  C   LIG     1      87.155  94.203  90.509  1.00  0.00     0.079 A 
HETATM   10  C   LIG     1      89.115  93.584  91.866  1.00  0.00    -0.024 A 
HETATM   11  C   LIG     1      87.220  95.518  91.046  1.00  0.00     0.097 A 
HETATM   12  C   LIG     1      89.182  94.900  92.377  1.00  0.00    -0.024 A 
HETATM   13  C   LIG     1      88.231  95.854  91.966  1.00  0.00     0.016 A 
HETATM   14  C   LIG     1      83.160  95.596  88.172  1.00  0.00     0.350 A 
HETATM   15  C   LIG     1      85.122  94.882  89.260  1.00  0.00     0.171 A 
HETATM   16  C   LIG     1      85.307  96.237  89.912  1.00  0.00     0.171 A 
HETATM   17  C   LIG     1      84.257  97.264  89.564  1.00  0.00     0.282 A 
HETATM   18  C   LIG     1      90.115  92.527  92.298  1.00  0.00     0.031 C 
HETATM   19  C   LIG     1      90.257  95.301  93.373  1.00  0.00     0.031 C 
ENDROOT
BRANCH   1  20
HETATM   20  C   LIG     1      86.096  92.611  88.974  1.00  0.00     0.140 C 
BRANCH  20  21
HETATM   21  C   LIG     1      86.664  92.615  87.548  1.00  0.00     0.176 C 
BRANCH  21  22
HETATM   22  O   LIG     1      88.012  92.178  87.584  1.00  0.00    -0.300 OA
BRANCH  22  23
HETATM   23  C   LIG     1      89.000  93.070  87.421  1.00  0.00     0.273 C 
HETATM   24  C   LIG     1      90.322  92.587  88.003  1.00  0.00     0.106 C 
HETATM   25  O   LIG     1      88.902  94.166  86.871  1.00  0.00    -0.264 OA
ENDBRANCH  22  23
ENDBRANCH  21  22
ENDBRANCH  20  21
ENDBRANCH   1  20
TORSDOF 4
ENDMDL
MODEL 8
REMARK VINA RESULT:       0.0      7.188      9.805
REMARK  4 active torsions:
REMARK  status: ('A' for Active; 'I' for Inactive)
REMARK    1  A    between atoms: N_1  and  C_20 
REMARK    2  A    between atoms: C_20  and  C_21 
REMARK    3  A    between atoms: C_21  and  O_22 
REMARK    4  A    between atoms: O_22  and  C_23 
ROOT
HETATM    1  N   LIG     1      87.397  87.434  91.652  1.00  0.00    -0.308 N 
HETATM    2  N   LIG     1      86.098  85.725  89.862  1.00  0.00    -0.236 NA
HETATM    3  N   LIG     1      89.211  85.895  91.729  1.00  0.00    -0.173 NA
HETATM    4  O   LIG     1      87.422  83.338  89.075  1.00  0.00    -0.265 OA
HETATM    5  N   LIG     1      89.149  83.907  90.431  1.00  0.00    -0.272 N 
HETATM    6  H   LIG     1      89.620  83.057  90.158  1.00  0.00     0.174 HD
HETATM    7  O   LIG     1      90.912  84.338  91.724  1.00  0.00    -0.244 OA
HETATM    8  C   LIG     1      85.367  88.915  91.688  1.00  0.00     0.014 A 
HETATM    9  C   LIG     1      86.087  87.778  91.236  1.00  0.00     0.079 A 
HETATM   10  C   LIG     1      84.066  89.186  91.213  1.00  0.00    -0.024 A 
HETATM   11  C   LIG     1      85.463  86.897  90.312  1.00  0.00     0.097 A 
HETATM   12  C   LIG     1      83.464  88.314  90.278  1.00  0.00    -0.024 A 
HETATM   13  C   LIG     1      84.166  87.175  89.839  1.00  0.00     0.016 A 
HETATM   14  C   LIG     1      89.810  84.697  91.316  1.00  0.00     0.350 A 
HETATM   15  C   LIG     1      88.038  86.246  91.282  1.00  0.00     0.171 A 
HETATM   16  C   LIG     1      87.254  85.397  90.302  1.00  0.00     0.171 A 
HETATM   17  C   LIG     1      87.937  84.121  89.872  1.00  0.00     0.282 A 
HETATM   18  C   LIG     1      83.333  90.416  91.719  1.00  0.00     0.031 C 
HETATM   19  C   LIG     1      82.066  88.579  89.746  1.00  0.00     0.031 C 
ENDROOT
BRANCH   1  20
HETATM   20  C   LIG     1      88.065  88.384  92.553  1.00  0.00     0.140 C 
BRANCH  20  21
HETATM   21  C   LIG     1      89.089  89.256  91.814  1.00  0.00     0.176 C 
BRANCH  21  22
HETATM   22  O   LIG     1      88.502  90.512  91.520  1.00  0.00    -0.300 OA
BRANCH  22  23
HETATM   23  C   LIG     1      88.135  90.791  90.260  1.00  0.00     0.273 C 
HETATM   24  C   LIG     1      87.076  91.883  90.191  1.00  0.00     0.106 C 
HETATM   25  O   LIG     1      88.573  90.255  89.242  1.00  0.00    -0.264 OA
ENDBRANCH  22  23
ENDBRANCH  21  22
ENDBRANCH  20  21
ENDBRANCH   1  20
TORSDOF 4
ENDMDL
MODEL 9
REMARK VINA RESULT:       0.0      4.159      5.991
REMARK  4 active torsions:
REMARK  status: ('A' for Active; 'I' for Inactive)
REMARK    1  A    between atoms: N_1  and  C_20 
REMARK    2  A    between atoms: C_20  and  C_21 
REMARK    3  A    between atoms: C_21  and  O_22 
REMARK    4  A    between atoms: O_22  and  C_23 
ROOT
HETATM    1  N   LIG     1      90.056  89.292  88.970  1.00  0.00    -0.308 N 
HETATM    2  N   LIG     1      87.477  89.906  89.855  1.00  0.00    -0.236 NA
HETATM    3  N   LIG     1      90.851  89.661  91.183  1.00  0.00    -0.173 NA
HETATM    4  O   LIG     1      87.107  90.530  92.602  1.00  0.00    -0.265 OA
HETATM    5  N   LIG     1      89.338  90.263  92.913  1.00  0.00    -0.272 N 
HETATM    6  H   LIG     1      89.212  90.491  93.888  1.00  0.00     0.174 HD
HETATM    7  O   LIG     1      91.509  90.037  93.361  1.00  0.00    -0.244 OA
HETATM    8  C   LIG     1      89.191  89.119  86.617  1.00  0.00     0.014 A 
HETATM    9  C   LIG     1      89.016  89.334  88.009  1.00  0.00     0.079 A 
HETATM   10  C   LIG     1      88.095  89.171  85.731  1.00  0.00    -0.024 A 
HETATM   11  C   LIG     1      87.714  89.631  88.496  1.00  0.00     0.097 A 
HETATM   12  C   LIG     1      86.801  89.447  86.229  1.00  0.00    -0.024 A 
HETATM   13  C   LIG     1      86.623  89.678  87.607  1.00  0.00     0.016 A 
HETATM   14  C   LIG     1      90.610  89.990  92.525  1.00  0.00     0.350 A 
HETATM   15  C   LIG     1      89.876  89.624  90.318  1.00  0.00     0.171 A 
HETATM   16  C   LIG     1      88.441  89.929  90.697  1.00  0.00     0.171 A 
HETATM   17  C   LIG     1      88.222  90.268  92.151  1.00  0.00     0.282 A 
HETATM   18  C   LIG     1      88.326  88.931  84.249  1.00  0.00     0.031 C 
HETATM   19  C   LIG     1      85.600  89.508  85.302  1.00  0.00     0.031 C 
ENDROOT
BRANCH   1  20
HETATM   20  C   LIG     1      91.388  88.916  88.473  1.00  0.00     0.140 C 
BRANCH  20  21
HETATM   21  C   LIG     1      91.733  87.457  88.799  1.00  0.00     0.176 C 
BRANCH  21  22
HETATM   22  O   LIG     1      91.483  86.655  87.657  1.00  0.00    -0.300 OA
BRANCH  22  23
HETATM   23  C   LIG     1      90.411  85.849  87.638  1.00  0.00     0.273 C 
HETATM   24  C   LIG     1      89.981  85.487  86.222  1.00  0.00     0.106 C 
HETATM   25  O   LIG     1      89.807  85.423  88.622  1.00  0.00    -0.264 OA
ENDBRANCH  22  23
ENDBRANCH  21  22
ENDBRANCH  20  21
ENDBRANCH   1  20
TORSDOF 4
ENDMDL
