MODEL 1
REMARK VINA RESULT:       0.0      0.000      0.000
REMARK  4 active torsions:
REMARK  status: ('A' for Active; 'I' for Inactive)
REMARK    1  A    between atoms: C_1  and  C_8 
REMARK    2  A    between atoms: C_1  and  C_12 
REMARK    3  A    between atoms: C_8  and  C_9 
REMARK    4  A    between atoms: C_12  and  C_13 
ROOT
HETATM    1  C   LIG     1      90.756  92.603  97.252  1.00  0.00     0.020 C 
HETATM    2  C   LIG     1      91.676  92.546  98.510  1.00  0.00     0.001 C 
HETATM    3  C   LIG     1      91.910  91.135  99.080  1.00  0.00     0.000 C 
HETATM    4  C   LIG     1      91.340  91.588  96.222  1.00  0.00     0.001 C 
HETATM    5  C   LIG     1      92.446  90.181  98.007  1.00  0.00     0.000 C 
HETATM    6  C   LIG     1      91.528  90.159  96.774  1.00  0.00     0.000 C 
HETATM    7  C   LIG     1      92.067  89.211  95.695  1.00  0.00     0.000 C 
ENDROOT
BRANCH   1   8
HETATM    8  C   LIG     1      89.294  92.260  97.717  1.00  0.00     0.098 C 
BRANCH   8   9
HETATM    9  C   LIG     1      88.413  93.424  98.198  1.00  0.00     0.185 C 
HETATM   10  O   LIG     1      88.587  93.821  99.370  1.00  0.00    -0.647 OA
HETATM   11  O   LIG     1      87.523  93.839  97.422  1.00  0.00    -0.647 OA
ENDBRANCH   8   9
ENDBRANCH   1   8
BRANCH   1  12
HETATM   12  C   LIG     1      90.871  94.079  96.730  1.00  0.00     0.098 C 
BRANCH  12  13
HETATM   13  C   LIG     1      90.696  94.317  95.222  1.00  0.00     0.185 C 
HETATM   14  O   LIG     1      91.704  94.658  94.565  1.00  0.00    -0.647 OA
HETATM   15  O   LIG     1      89.534  94.240  94.768  1.00  0.00    -0.647 OA
ENDBRANCH  12  13
ENDBRANCH   1  12
TORSDOF 4
ENDMDL
MODEL 2
REMARK VINA RESULT:       0.0      4.509      6.367
REMARK  4 active torsions:
REMARK  status: ('A' for Active; 'I' for Inactive)
REMARK    1  A    between atoms: C_1  and  C_8 
REMARK    2  A    between atoms: C_1  and  C_12 
REMARK    3  A    between atoms: C_8  and  C_9 
REMARK    4  A    between atoms: C_12  and  C_13 
ROOT
HETATM    1  C   LIG     1      88.130  91.701  92.975  1.00  0.00     0.020 C 
HETATM    2  C   LIG     1      88.248  91.961  91.443  1.00  0.00     0.001 C 
HETATM    3  C   LIG     1      87.994  93.417  91.009  1.00  0.00     0.000 C 
HETATM    4  C   LIG     1      89.050  92.745  93.681  1.00  0.00     0.001 C 
HETATM    5  C   LIG     1      88.902  94.391  91.768  1.00  0.00     0.000 C 
HETATM    6  C   LIG     1      88.764  94.211  93.288  1.00  0.00     0.000 C 
HETATM    7  C   LIG     1      89.679  95.180  94.049  1.00  0.00     0.000 C 
ENDROOT
BRANCH   1   8
HETATM    8  C   LIG     1      86.613  91.831  93.364  1.00  0.00     0.098 C 
BRANCH   8   9
HETATM    9  C   LIG     1      85.745  90.567  93.262  1.00  0.00     0.185 C 
HETATM   10  O   LIG     1      85.325  90.257  92.126  1.00  0.00    -0.647 OA
HETATM   11  O   LIG     1      85.441  89.982  94.326  1.00  0.00    -0.647 OA
ENDBRANCH   8   9
ENDBRANCH   1   8
BRANCH   1  12
HETATM   12  C   LIG     1      88.662  90.239  93.183  1.00  0.00     0.098 C 
BRANCH  12  13
HETATM   13  C   LIG     1      89.326  89.905  94.527  1.00  0.00     0.185 C 
HETATM   14  O   LIG     1      90.560  89.698  94.533  1.00  0.00    -0.647 OA
HETATM   15  O   LIG     1      88.571  89.776  95.515  1.00  0.00    -0.647 OA
ENDBRANCH  12  13
ENDBRANCH   1  12
TORSDOF 4
ENDMDL
MODEL 3
REMARK VINA RESULT:       0.0      4.467      6.310
REMARK  4 active torsions:
REMARK  status: ('A' for Active; 'I' for Inactive)
REMARK    1  A    between atoms: C_1  and  C_8 
REMARK    2  A    between atoms: C_1  and  C_12 
REMARK    3  A    between atoms: C_8  and  C_9 
REMARK    4  A    between atoms: C_12  and  C_13 
ROOT
HETATM    1  C   LIG     1      90.978  91.451  92.084  1.00  0.00     0.020 C 
HETATM    2  C   LIG     1      90.429  91.627  90.636  1.00  0.00     0.001 C 
HETATM    3  C   LIG     1      90.666  93.017  90.016  1.00  0.00     0.000 C 
HETATM    4  C   LIG     1      92.475  91.888  92.054  1.00  0.00     0.001 C 
HETATM    5  C   LIG     1      92.150  93.400  90.055  1.00  0.00     0.000 C 
HETATM    6  C   LIG     1      92.712  93.302  91.482  1.00  0.00     0.000 C 
HETATM    7  C   LIG     1      94.200  93.676  91.521  1.00  0.00     0.000 C 
ENDROOT
BRANCH   1   8
HETATM    8  C   LIG     1      90.085  92.322  93.041  1.00  0.00     0.098 C 
BRANCH   8   9
HETATM    9  C   LIG     1      88.825  91.664  93.627  1.00  0.00     0.185 C 
HETATM   10  O   LIG     1      87.816  91.615  92.891  1.00  0.00    -0.647 OA
HETATM   11  O   LIG     1      88.862  91.303  94.825  1.00  0.00    -0.647 OA
ENDBRANCH   8   9
ENDBRANCH   1   8
BRANCH   1  12
HETATM   12  C   LIG     1      90.836  89.918  92.390  1.00  0.00     0.098 C 
BRANCH  12  13
HETATM   13  C   LIG     1      91.848  89.286  93.358  1.00  0.00     0.185 C 
HETATM   14  O   LIG     1      92.688  88.489  92.885  1.00  0.00    -0.647 OA
HETATM   15  O   LIG     1      91.708  89.546  94.573  1.00  0.00    -0.647 OA
ENDBRANCH  12  13
ENDBRANCH   1  12
TORSDOF 4
ENDMDL
MODEL 4
REMARK VINA RESULT:       0.0      7.596      9.354
REMARK  4 active torsions:
REMARK  status: ('A' for Active; 'I' for Inactive)
REMARK    1  A    between atoms: C_1  and  C_8 
REMARK    2  A    between atoms: C_1  and  C_12 
REMARK    3  A    between atoms: C_8  and  C_9 
REMARK    4  A    between atoms: C_12  and  C_13 
ROOT
HETATM    1  C   LIG     1      88.674  85.543  93.151  1.00  0.00     0.020 C 
HETATM    2  C   LIG     1      88.961  86.651  94.211  1.00  0.00     0.001 C 
HETATM    3  C   LIG     1      90.274  87.427  93.999  1.00  0.00     0.000 C 
HETATM    4  C   LIG     1      88.796  86.218  91.750  1.00  0.00     0.001 C 
HETATM    5  C   LIG     1      90.346  88.030  92.592  1.00  0.00     0.000 C 
HETATM    6  C   LIG     1      90.133  86.955  91.514  1.00  0.00     0.000 C 
HETATM    7  C   LIG     1      90.195  87.558  90.104  1.00  0.00     0.000 C 
ENDROOT
BRANCH   1   8
HETATM    8  C   LIG     1      89.708  84.383  93.385  1.00  0.00     0.098 C 
BRANCH   8   9
HETATM    9  C   LIG     1      89.321  83.280  94.384  1.00  0.00     0.185 C 
HETATM   10  O   LIG     1      89.480  83.533  95.597  1.00  0.00    -0.647 OA
HETATM   11  O   LIG     1      88.957  82.176  93.920  1.00  0.00    -0.647 OA
ENDBRANCH   8   9
ENDBRANCH   1   8
BRANCH   1  12
HETATM   12  C   LIG     1      87.202  85.079  93.436  1.00  0.00     0.098 C 
BRANCH  12  13
HETATM   13  C   LIG     1      86.375  84.560  92.249  1.00  0.00     0.185 C 
HETATM   14  O   LIG     1      85.424  85.265  91.848  1.00  0.00    -0.647 OA
HETATM   15  O   LIG     1      86.657  83.420  91.819  1.00  0.00    -0.647 OA
ENDBRANCH  12  13
ENDBRANCH   1  12
TORSDOF 4
ENDMDL
MODEL 5
REMARK VINA RESULT:       0.0      9.601     11.692
REMARK  4 active torsions:
REMARK  status: ('A' for Active; 'I' for Inactive)
REMARK    1  A    between atoms: C_1  and  C_8 
REMARK    2  A    between atoms: C_1  and  C_12 
REMARK    3  A    between atoms: C_8  and  C_9 
REMARK    4  A    between atoms: C_12  and  C_13 
ROOT
HETATM    1  C   LIG     1      93.240  88.152  87.557  1.00  0.00     0.020 C 
HETATM    2  C   LIG     1      92.013  89.099  87.396  1.00  0.00     0.001 C 
HETATM    3  C   LIG     1      90.657  88.475  87.777  1.00  0.00     0.000 C 
HETATM    4  C   LIG     1      93.185  87.586  89.010  1.00  0.00     0.001 C 
HETATM    5  C   LIG     1      90.684  87.906  89.199  1.00  0.00     0.000 C 
HETATM    6  C   LIG     1      91.845  86.914  89.379  1.00  0.00     0.000 C 
HETATM    7  C   LIG     1      91.879  86.348  90.805  1.00  0.00     0.000 C 
ENDROOT
BRANCH   1   8
HETATM    8  C   LIG     1      93.137  87.046  86.445  1.00  0.00     0.098 C 
BRANCH   8   9
HETATM    9  C   LIG     1      93.775  87.352  85.080  1.00  0.00     0.185 C 
HETATM   10  O   LIG     1      93.117  88.066  84.293  1.00  0.00    -0.647 OA
HETATM   11  O   LIG     1      94.865  86.800  84.810  1.00  0.00    -0.647 OA
ENDBRANCH   8   9
ENDBRANCH   1   8
BRANCH   1  12
HETATM   12  C   LIG     1      94.495  89.072  87.349  1.00  0.00     0.098 C 
BRANCH  12  13
HETATM   13  C   LIG     1      95.790  88.690  88.083  1.00  0.00     0.185 C 
HETATM   14  O   LIG     1      96.169  89.427  89.019  1.00  0.00    -0.647 OA
HETATM   15  O   LIG     1      96.426  87.711  87.636  1.00  0.00    -0.647 OA
ENDBRANCH  12  13
ENDBRANCH   1  12
TORSDOF 4
ENDMDL
MODEL 6
REMARK VINA RESULT:       0.0      7.280      8.630
REMARK  4 active torsions:
REMARK  status: ('A' for Active; 'I' for Inactive)
REMARK    1  A    between atoms: C_1  and  C_8 
REMARK    2  A    between atoms: C_1  and  C_12 
REMARK    3  A    between atoms: C_8  and  C_9 
REMARK    4  A    between atoms: C_12  and  C_13 
ROOT
HETATM    1  C   LIG     1      84.450  89.577  93.462  1.00  0.00     0.020 C 
HETATM    2  C   LIG     1      85.699  88.646  93.519  1.00  0.00     0.001 C 
HETATM    3  C   LIG     1      86.508  88.565  92.210  1.00  0.00     0.000 C 
HETATM    4  C   LIG     1      84.941  90.958  92.930  1.00  0.00     0.001 C 
HETATM    5  C   LIG     1      86.925  89.958  91.725  1.00  0.00     0.000 C 
HETATM    6  C   LIG     1      85.708  90.888  91.592  1.00  0.00     0.000 C 
HETATM    7  C   LIG     1      86.124  92.286  91.114  1.00  0.00     0.000 C 
ENDROOT
BRANCH   1   8
HETATM    8  C   LIG     1      83.384  88.886  92.535  1.00  0.00     0.098 C 
BRANCH   8   9
HETATM    9  C   LIG     1      82.404  87.902  93.194  1.00  0.00     0.185 C 
HETATM   10  O   LIG     1      82.821  86.745  93.410  1.00  0.00    -0.647 OA
HETATM   11  O   LIG     1      81.231  88.293  93.389  1.00  0.00    -0.647 OA
ENDBRANCH   8   9
ENDBRANCH   1   8
BRANCH   1  12
HETATM   12  C   LIG     1      83.951  89.679  94.947  1.00  0.00     0.098 C 
BRANCH  12  13
HETATM   13  C   LIG     1      83.238  90.973  95.372  1.00  0.00     0.185 C 
HETATM   14  O   LIG     1      83.834  91.733  96.167  1.00  0.00    -0.647 OA
HETATM   15  O   LIG     1      82.068  91.135  94.961  1.00  0.00    -0.647 OA
ENDBRANCH  12  13
ENDBRANCH   1  12
TORSDOF 4
ENDMDL
MODEL 7
REMARK VINA RESULT:       0.0     10.789     13.156
REMARK  4 active torsions:
REMARK  status: ('A' for Active; 'I' for Inactive)
REMARK    1  A    between atoms: C_1  and  C_8 
REMARK    2  A    between atoms: C_1  and  C_12 
REMARK    3  A    between atoms: C_8  and  C_9 
REMARK    4  A    between atoms: C_12  and  C_13 
ROOT
HETATM    1  C   LIG     1      94.586  87.272  85.902  1.00  0.00     0.020 C 
HETATM    2  C   LIG     1      94.839  85.739  85.771  1.00  0.00     0.001 C 
HETATM    3  C   LIG     1      93.677  84.940  85.151  1.00  0.00     0.000 C 
HETATM    4  C   LIG     1      94.146  87.777  84.493  1.00  0.00     0.001 C 
HETATM    5  C   LIG     1      93.270  85.512  83.789  1.00  0.00     0.000 C 
HETATM    6  C   LIG     1      92.948  87.012  83.890  1.00  0.00     0.000 C 
HETATM    7  C   LIG     1      92.549  87.589  82.525  1.00  0.00     0.000 C 
ENDROOT
BRANCH   1   8
HETATM    8  C   LIG     1      93.497  87.481  87.016  1.00  0.00     0.098 C 
BRANCH   8   9
HETATM    9  C   LIG     1      93.985  87.615  88.467  1.00  0.00     0.185 C 
HETATM   10  O   LIG     1      94.262  86.558  89.074  1.00  0.00    -0.647 OA
HETATM   11  O   LIG     1      93.991  88.759  88.975  1.00  0.00    -0.647 OA
ENDBRANCH   8   9
ENDBRANCH   1   8
BRANCH   1  12
HETATM   12  C   LIG     1      95.971  87.879  86.320  1.00  0.00     0.098 C 
BRANCH  12  13
HETATM   13  C   LIG     1      96.282  89.318  85.880  1.00  0.00     0.185 C 
HETATM   14  O   LIG     1      97.164  89.484  85.008  1.00  0.00    -0.647 OA
HETATM   15  O   LIG     1      95.691  90.236  86.489  1.00  0.00    -0.647 OA
ENDBRANCH  12  13
ENDBRANCH   1  12
TORSDOF 4
ENDMDL
MODEL 8
REMARK VINA RESULT:       0.0     11.785     13.601
REMARK  4 active torsions:
REMARK  status: ('A' for Active; 'I' for Inactive)
REMARK    1  A    between atoms: C_1  and  C_8 
REMARK    2  A    between atoms: C_1  and  C_12 
REMARK    3  A    between atoms: C_8  and  C_9 
REMARK    4  A    between atoms: C_12  and  C_13 
ROOT
HETATM    1  C   LIG     1      94.007  91.172  84.606  1.00  0.00     0.020 C 
HETATM    2  C   LIG     1      93.468  92.218  85.629  1.00  0.00     0.001 C 
HETATM    3  C   LIG     1      92.266  91.746  86.468  1.00  0.00     0.000 C 
HETATM    4  C   LIG     1      94.264  89.856  85.402  1.00  0.00     0.001 C 
HETATM    5  C   LIG     1      92.572  90.430  87.191  1.00  0.00     0.000 C 
HETATM    6  C   LIG     1      93.045  89.350  86.204  1.00  0.00     0.000 C 
HETATM    7  C   LIG     1      93.361  88.034  86.927  1.00  0.00     0.000 C 
ENDROOT
BRANCH   1   8
HETATM    8  C   LIG     1      92.933  91.023  83.468  1.00  0.00     0.098 C 
BRANCH   8   9
HETATM    9  C   LIG     1      93.030  91.983  82.271  1.00  0.00     0.185 C 
HETATM   10  O   LIG     1      92.564  93.132  82.426  1.00  0.00    -0.647 OA
HETATM   11  O   LIG     1      93.487  91.530  81.198  1.00  0.00    -0.647 OA
ENDBRANCH   8   9
ENDBRANCH   1   8
BRANCH   1  12
HETATM   12  C   LIG     1      95.347  91.785  84.065  1.00  0.00     0.098 C 
BRANCH  12  13
HETATM   13  C   LIG     1      96.448  90.810  83.618  1.00  0.00     0.185 C 
HETATM   14  O   LIG     1      97.481  90.737  84.319  1.00  0.00    -0.647 OA
HETATM   15  O   LIG     1      96.272  90.219  82.531  1.00  0.00    -0.647 OA
ENDBRANCH  12  13
ENDBRANCH   1  12
TORSDOF 4
ENDMDL
MODEL 9
REMARK VINA RESULT:       0.0     11.136     13.453
REMARK  4 active torsions:
REMARK  status: ('A' for Active; 'I' for Inactive)
REMARK    1  A    between atoms: C_1  and  C_8 
REMARK    2  A    between atoms: C_1  and  C_12 
REMARK    3  A    between atoms: C_8  and  C_9 
REMARK    4  A    between atoms: C_12  and  C_13 
ROOT
HETATM    1  C   LIG     1      90.955  96.177  84.660  1.00  0.00     0.020 C 
HETATM    2  C   LIG     1      92.202  96.113  83.725  1.00  0.00     0.001 C 
HETATM    3  C   LIG     1      91.889  95.824  82.245  1.00  0.00     0.000 C 
HETATM    4  C   LIG     1      89.957  97.184  84.011  1.00  0.00     0.001 C 
HETATM    5  C   LIG     1      90.874  96.826  81.683  1.00  0.00     0.000 C 
HETATM    6  C   LIG     1      89.600  96.868  82.542  1.00  0.00     0.000 C 
HETATM    7  C   LIG     1      88.586  97.877  81.986  1.00  0.00     0.000 C 
ENDROOT
BRANCH   1   8
HETATM    8  C   LIG     1      90.385  94.718  84.791  1.00  0.00     0.098 C 
BRANCH   8   9
HETATM    9  C   LIG     1      90.959  93.831  85.907  1.00  0.00     0.185 C 
HETATM   10  O   LIG     1      92.056  93.276  85.684  1.00  0.00    -0.647 OA
HETATM   11  O   LIG     1      90.254  93.650  86.926  1.00  0.00    -0.647 OA
ENDBRANCH   8   9
ENDBRANCH   1   8
BRANCH   1  12
HETATM   12  C   LIG     1      91.501  96.714  86.030  1.00  0.00     0.098 C 
BRANCH  12  13
HETATM   13  C   LIG     1      90.541  97.531  86.909  1.00  0.00     0.185 C 
HETATM   14  O   LIG     1      90.768  98.754  87.040  1.00  0.00    -0.647 OA
HETATM   15  O   LIG     1      89.645  96.897  87.508  1.00  0.00    -0.647 OA
ENDBRANCH  12  13
ENDBRANCH   1  12
TORSDOF 4
ENDMDL
