MODEL 1
REMARK VINA RESULT:      -0.0      0.000      0.000
REMARK  9 active torsions:
REMARK  status: ('A' for Active; 'I' for Inactive)
REMARK    1  A    between atoms: C_2  and  C_7 
REMARK    2  A    between atoms: C_3  and  O_13 
REMARK    3  A    between atoms: C_4  and  C_15 
REMARK    4  A    between atoms: C_7  and  O_8 
REMARK    5  A    between atoms: C_7  and  C_10 
REMARK    6  A    between atoms: C_10  and  O_11 
REMARK    7  A    between atoms: C_15  and  O_16 
REMARK    8  A    between atoms: C_15  and  C_18 
REMARK    9  A    between atoms: C_18  and  O_19 
ROOT
HETATM    1  O   LIG     1      94.717  92.287  92.785  1.00  0.00    -0.325 OA
HETATM    2  C   LIG     1      95.130  91.244  91.909  1.00  0.00     0.176 C 
HETATM    3  C   LIG     1      95.146  91.784  90.461  1.00  0.00     0.170 C 
HETATM    4  C   LIG     1      93.796  92.462  90.107  1.00  0.00     0.176 C 
HETATM    5  O   LIG     1      93.512  93.392  91.152  1.00  0.00    -0.325 OA
HETATM    6  C   LIG     1      93.489  92.838  92.433  1.00  0.00     0.294 C 
ENDROOT
BRANCH   2   7
HETATM    7  C   LIG     1      96.477  90.673  92.410  1.00  0.00     0.170 C 
BRANCH   7   8
HETATM    8  O   LIG     1      96.767  89.445  91.770  1.00  0.00    -0.380 OA
HETATM    9  H   LIG     1      97.522  89.579  91.218  1.00  0.00     0.211 HD
ENDBRANCH   7   8
BRANCH   7  10
HETATM   10  C   LIG     1      97.652  91.642  92.196  1.00  0.00     0.169 C 
BRANCH  10  11
HETATM   11  O   LIG     1      97.541  92.742  93.077  1.00  0.00    -0.380 OA
HETATM   12  H   LIG     1      97.109  93.449  92.622  1.00  0.00     0.211 HD
ENDBRANCH  10  11
ENDBRANCH   7  10
ENDBRANCH   2   7
BRANCH   3  13
HETATM   13  O   LIG     1      95.468  90.749  89.551  1.00  0.00    -0.380 OA
HETATM   14  H   LIG     1      95.526  89.936  90.031  1.00  0.00     0.211 HD
ENDBRANCH   3  13
BRANCH   4  15
HETATM   15  C   LIG     1      92.584  91.520  89.847  1.00  0.00     0.170 C 
BRANCH  15  16
HETATM   16  O   LIG     1      92.856  90.716  88.714  1.00  0.00    -0.380 OA
HETATM   17  H   LIG     1      92.487  91.150  87.959  1.00  0.00     0.211 HD
ENDBRANCH  15  16
BRANCH  15  18
HETATM   18  C   LIG     1      91.290  92.288  89.508  1.00  0.00     0.169 C 
BRANCH  18  19
HETATM   19  O   LIG     1      91.608  93.562  88.986  1.00  0.00    -0.380 OA
HETATM   20  H   LIG     1      92.477  93.528  88.616  1.00  0.00     0.211 HD
ENDBRANCH  18  19
ENDBRANCH  15  18
ENDBRANCH   4  15
TORSDOF 9
ENDMDL
MODEL 2
REMARK VINA RESULT:      -0.0      5.470      7.558
REMARK  9 active torsions:
REMARK  status: ('A' for Active; 'I' for Inactive)
REMARK    1  A    between atoms: C_2  and  C_7 
REMARK    2  A    between atoms: C_3  and  O_13 
REMARK    3  A    between atoms: C_4  and  C_15 
REMARK    4  A    between atoms: C_7  and  O_8 
REMARK    5  A    between atoms: C_7  and  C_10 
REMARK    6  A    between atoms: C_10  and  O_11 
REMARK    7  A    between atoms: C_15  and  O_16 
REMARK    8  A    between atoms: C_15  and  C_18 
REMARK    9  A    between atoms: C_18  and  O_19 
ROOT
HETATM    1  O   LIG     1      87.712  89.821  90.239  1.00  0.00    -0.325 OA
HETATM    2  C   LIG     1      88.463  90.977  90.590  1.00  0.00     0.176 C 
HETATM    3  C   LIG     1      87.485  92.119  90.949  1.00  0.00     0.170 C 
HETATM    4  C   LIG     1      86.431  92.319  89.829  1.00  0.00     0.176 C 
HETATM    5  O   LIG     1      85.869  91.036  89.553  1.00  0.00    -0.325 OA
HETATM    6  C   LIG     1      86.802  90.054  89.213  1.00  0.00     0.294 C 
ENDROOT
BRANCH   2   7
HETATM    7  C   LIG     1      89.469  90.602  91.704  1.00  0.00     0.170 C 
BRANCH   7   8
HETATM    8  O   LIG     1      90.440  91.618  91.862  1.00  0.00    -0.380 OA
HETATM    9  H   LIG     1      91.252  91.301  91.496  1.00  0.00     0.211 HD
ENDBRANCH   7   8
BRANCH   7  10
HETATM   10  C   LIG     1      88.789  90.340  93.059  1.00  0.00     0.169 C 
BRANCH  10  11
HETATM   11  O   LIG     1      88.058  89.132  93.009  1.00  0.00    -0.380 OA
HETATM   12  H   LIG     1      87.140  89.331  93.117  1.00  0.00     0.211 HD
ENDBRANCH  10  11
ENDBRANCH   7  10
ENDBRANCH   2   7
BRANCH   3  13
HETATM   13  O   LIG     1      88.197  93.312  91.220  1.00  0.00    -0.380 OA
HETATM   14  H   LIG     1      87.650  93.874  91.747  1.00  0.00     0.211 HD
ENDBRANCH   3  13
BRANCH   4  15
HETATM   15  C   LIG     1      86.918  93.013  88.522  1.00  0.00     0.170 C 
BRANCH  15  16
HETATM   16  O   LIG     1      87.331  94.332  88.825  1.00  0.00    -0.380 OA
HETATM   17  H   LIG     1      88.237  94.416  88.565  1.00  0.00     0.211 HD
ENDBRANCH  15  16
BRANCH  15  18
HETATM   18  C   LIG     1      85.800  93.161  87.471  1.00  0.00     0.169 C 
BRANCH  18  19
HETATM   19  O   LIG     1      84.536  93.150  88.104  1.00  0.00    -0.380 OA
HETATM   20  H   LIG     1      84.667  93.062  89.036  1.00  0.00     0.211 HD
ENDBRANCH  18  19
ENDBRANCH  15  18
ENDBRANCH   4  15
TORSDOF 9
ENDMDL
MODEL 3
REMARK VINA RESULT:      -0.0      9.077     11.632
REMARK  9 active torsions:
REMARK  status: ('A' for Active; 'I' for Inactive)
REMARK    1  A    between atoms: C_2  and  C_7 
REMARK    2  A    between atoms: C_3  and  O_13 
REMARK    3  A    between atoms: C_4  and  C_15 
REMARK    4  A    between atoms: C_7  and  O_8 
REMARK    5  A    between atoms: C_7  and  C_10 
REMARK    6  A    between atoms: C_10  and  O_11 
REMARK    7  A    between atoms: C_15  and  O_16 
REMARK    8  A    between atoms: C_15  and  C_18 
REMARK    9  A    between atoms: C_18  and  O_19 
ROOT
HETATM    1  O   LIG     1      90.696  84.035  82.712  1.00  0.00    -0.325 OA
HETATM    2  C   LIG     1      90.502  83.218  83.860  1.00  0.00     0.176 C 
HETATM    3  C   LIG     1      90.202  84.124  85.075  1.00  0.00     0.170 C 
HETATM    4  C   LIG     1      91.277  85.234  85.217  1.00  0.00     0.176 C 
HETATM    5  O   LIG     1      91.394  85.864  83.941  1.00  0.00    -0.325 OA
HETATM    6  C   LIG     1      91.689  84.994  82.889  1.00  0.00     0.294 C 
ENDROOT
BRANCH   2   7
HETATM    7  C   LIG     1      89.415  82.163  83.546  1.00  0.00     0.170 C 
BRANCH   7   8
HETATM    8  O   LIG     1      89.411  81.143  84.526  1.00  0.00    -0.380 OA
HETATM    9  H   LIG     1      89.913  80.416  84.189  1.00  0.00     0.211 HD
ENDBRANCH   7   8
BRANCH   7  10
HETATM   10  C   LIG     1      88.005  82.770  83.446  1.00  0.00     0.169 C 
BRANCH  10  11
HETATM   11  O   LIG     1      87.896  83.552  82.274  1.00  0.00    -0.380 OA
HETATM   12  H   LIG     1      88.760  83.665  81.906  1.00  0.00     0.211 HD
ENDBRANCH  10  11
ENDBRANCH   7  10
ENDBRANCH   2   7
BRANCH   3  13
HETATM   13  O   LIG     1      90.089  83.349  86.254  1.00  0.00    -0.380 OA
HETATM   14  H   LIG     1      90.924  83.357  86.699  1.00  0.00     0.211 HD
ENDBRANCH   3  13
BRANCH   4  15
HETATM   15  C   LIG     1      92.669  84.799  85.760  1.00  0.00     0.170 C 
BRANCH  15  16
HETATM   16  O   LIG     1      92.520  84.314  87.082  1.00  0.00    -0.380 OA
HETATM   17  H   LIG     1      92.460  85.062  87.657  1.00  0.00     0.211 HD
ENDBRANCH  15  16
BRANCH  15  18
HETATM   18  C   LIG     1      93.667  85.971  85.860  1.00  0.00     0.169 C 
BRANCH  18  19
HETATM   19  O   LIG     1      92.965  87.194  85.968  1.00  0.00    -0.380 OA
HETATM   20  H   LIG     1      92.436  87.306  85.193  1.00  0.00     0.211 HD
ENDBRANCH  18  19
ENDBRANCH  15  18
ENDBRANCH   4  15
TORSDOF 9
ENDMDL
MODEL 4
REMARK VINA RESULT:      -0.0      4.351      5.957
REMARK  9 active torsions:
REMARK  status: ('A' for Active; 'I' for Inactive)
REMARK    1  A    between atoms: C_2  and  C_7 
REMARK    2  A    between atoms: C_3  and  O_13 
REMARK    3  A    between atoms: C_4  and  C_15 
REMARK    4  A    between atoms: C_7  and  O_8 
REMARK    5  A    between atoms: C_7  and  C_10 
REMARK    6  A    between atoms: C_10  and  O_11 
REMARK    7  A    between atoms: C_15  and  O_16 
REMARK    8  A    between atoms: C_15  and  C_18 
REMARK    9  A    between atoms: C_18  and  O_19 
ROOT
HETATM    1  O   LIG     1      95.609  89.540  89.666  1.00  0.00    -0.325 OA
HETATM    2  C   LIG     1      96.513  89.559  88.568  1.00  0.00     0.176 C 
HETATM    3  C   LIG     1      95.927  88.704  87.422  1.00  0.00     0.170 C 
HETATM    4  C   LIG     1      95.520  87.297  87.932  1.00  0.00     0.176 C 
HETATM    5  O   LIG     1      94.706  87.492  89.088  1.00  0.00    -0.325 OA
HETATM    6  C   LIG     1      95.302  88.253  90.096  1.00  0.00     0.294 C 
ENDROOT
BRANCH   2   7
HETATM    7  C   LIG     1      96.821  91.029  88.198  1.00  0.00     0.170 C 
BRANCH   7   8
HETATM    8  O   LIG     1      97.941  91.102  87.337  1.00  0.00    -0.380 OA
HETATM    9  H   LIG     1      97.787  91.804  86.723  1.00  0.00     0.211 HD
ENDBRANCH   7   8
BRANCH   7  10
HETATM   10  C   LIG     1      95.629  91.739  87.535  1.00  0.00     0.169 C 
BRANCH  10  11
HETATM   11  O   LIG     1      94.608  91.963  88.487  1.00  0.00    -0.380 OA
HETATM   12  H   LIG     1      94.620  91.256  89.114  1.00  0.00     0.211 HD
ENDBRANCH  10  11
ENDBRANCH   7  10
ENDBRANCH   2   7
BRANCH   3  13
HETATM   13  O   LIG     1      96.841  88.629  86.344  1.00  0.00    -0.380 OA
HETATM   14  H   LIG     1      96.407  88.934  85.562  1.00  0.00     0.211 HD
ENDBRANCH   3  13
BRANCH   4  15
HETATM   15  C   LIG     1      96.676  86.294  88.221  1.00  0.00     0.170 C 
BRANCH  15  16
HETATM   16  O   LIG     1      97.365  86.021  87.015  1.00  0.00    -0.380 OA
HETATM   17  H   LIG     1      96.792  86.248  86.298  1.00  0.00     0.211 HD
ENDBRANCH  15  16
BRANCH  15  18
HETATM   18  C   LIG     1      96.171  84.927  88.726  1.00  0.00     0.169 C 
BRANCH  18  19
HETATM   19  O   LIG     1      94.839  84.717  88.300  1.00  0.00    -0.380 OA
HETATM   20  H   LIG     1      94.616  85.386  87.671  1.00  0.00     0.211 HD
ENDBRANCH  18  19
ENDBRANCH  15  18
ENDBRANCH   4  15
TORSDOF 9
ENDMDL
MODEL 5
REMARK VINA RESULT:      -0.0      4.742      6.918
REMARK  9 active torsions:
REMARK  status: ('A' for Active; 'I' for Inactive)
REMARK    1  A    between atoms: C_2  and  C_7 
REMARK    2  A    between atoms: C_3  and  O_13 
REMARK    3  A    between atoms: C_4  and  C_15 
REMARK    4  A    between atoms: C_7  and  O_8 
REMARK    5  A    between atoms: C_7  and  C_10 
REMARK    6  A    between atoms: C_10  and  O_11 
REMARK    7  A    between atoms: C_15  and  O_16 
REMARK    8  A    between atoms: C_15  and  C_18 
REMARK    9  A    between atoms: C_18  and  O_19 
ROOT
HETATM    1  O   LIG     1      90.511  89.156  87.140  1.00  0.00    -0.325 OA
HETATM    2  C   LIG     1      89.885  89.936  88.152  1.00  0.00     0.176 C 
HETATM    3  C   LIG     1      90.913  90.225  89.268  1.00  0.00     0.170 C 
HETATM    4  C   LIG     1      91.588  88.916  89.753  1.00  0.00     0.176 C 
HETATM    5  O   LIG     1      92.057  88.234  88.590  1.00  0.00    -0.325 OA
HETATM    6  C   LIG     1      91.075  87.982  87.630  1.00  0.00     0.294 C 
ENDROOT
BRANCH   2   7
HETATM    7  C   LIG     1      89.255  91.190  87.500  1.00  0.00     0.170 C 
BRANCH   7   8
HETATM    8  O   LIG     1      88.364  91.823  88.396  1.00  0.00    -0.380 OA
HETATM    9  H   LIG     1      87.552  91.976  87.937  1.00  0.00     0.211 HD
ENDBRANCH   7   8
BRANCH   7  10
HETATM   10  C   LIG     1      90.307  92.209  87.030  1.00  0.00     0.169 C 
BRANCH  10  11
HETATM   11  O   LIG     1      91.005  91.705  85.910  1.00  0.00    -0.380 OA
HETATM   12  H   LIG     1      91.313  92.434  85.393  1.00  0.00     0.211 HD
ENDBRANCH  10  11
ENDBRANCH   7  10
ENDBRANCH   2   7
BRANCH   3  13
HETATM   13  O   LIG     1      90.300  90.926  90.334  1.00  0.00    -0.380 OA
HETATM   14  H   LIG     1      89.675  91.537  89.971  1.00  0.00     0.211 HD
ENDBRANCH   3  13
BRANCH   4  15
HETATM   15  C   LIG     1      90.731  87.974  90.650  1.00  0.00     0.170 C 
BRANCH  15  16
HETATM   16  O   LIG     1      90.411  88.646  91.854  1.00  0.00    -0.380 OA
HETATM   17  H   LIG     1      90.105  89.511  91.628  1.00  0.00     0.211 HD
ENDBRANCH  15  16
BRANCH  15  18
HETATM   18  C   LIG     1      91.488  86.700  91.076  1.00  0.00     0.169 C 
BRANCH  18  19
HETATM   19  O   LIG     1      92.882  86.929  91.031  1.00  0.00    -0.380 OA
HETATM   20  H   LIG     1      93.184  86.779  90.148  1.00  0.00     0.211 HD
ENDBRANCH  18  19
ENDBRANCH  15  18
ENDBRANCH   4  15
TORSDOF 9
ENDMDL
MODEL 6
REMARK VINA RESULT:      -0.0      5.613      7.930
REMARK  9 active torsions:
REMARK  status: ('A' for Active; 'I' for Inactive)
REMARK    1  A    between atoms: C_2  and  C_7 
REMARK    2  A    between atoms: C_3  and  O_13 
REMARK    3  A    between atoms: C_4  and  C_15 
REMARK    4  A    between atoms: C_7  and  O_8 
REMARK    5  A    between atoms: C_7  and  C_10 
REMARK    6  A    between atoms: C_10  and  O_11 
REMARK    7  A    between atoms: C_15  and  O_16 
REMARK    8  A    between atoms: C_15  and  C_18 
REMARK    9  A    between atoms: C_18  and  O_19 
ROOT
HETATM    1  O   LIG     1      89.704  89.120  90.152  1.00  0.00    -0.325 OA
HETATM    2  C   LIG     1      88.451  89.683  90.524  1.00  0.00     0.176 C 
HETATM    3  C   LIG     1      88.373  89.754  92.066  1.00  0.00     0.170 C 
HETATM    4  C   LIG     1      88.706  88.379  92.702  1.00  0.00     0.176 C 
HETATM    5  O   LIG     1      89.937  87.942  92.126  1.00  0.00    -0.325 OA
HETATM    6  C   LIG     1      89.935  87.877  90.732  1.00  0.00     0.294 C 
ENDROOT
BRANCH   2   7
HETATM    7  C   LIG     1      88.274  91.036  89.795  1.00  0.00     0.170 C 
BRANCH   7   8
HETATM    8  O   LIG     1      86.932  91.476  89.881  1.00  0.00    -0.380 OA
HETATM    9  H   LIG     1      86.497  90.951  90.536  1.00  0.00     0.211 HD
ENDBRANCH   7   8
BRANCH   7  10
HETATM   10  C   LIG     1      89.200  92.135  90.343  1.00  0.00     0.169 C 
BRANCH  10  11
HETATM   11  O   LIG     1      90.539  91.866  89.980  1.00  0.00    -0.380 OA
HETATM   12  H   LIG     1      90.615  91.932  89.040  1.00  0.00     0.211 HD
ENDBRANCH  10  11
ENDBRANCH   7  10
ENDBRANCH   2   7
BRANCH   3  13
HETATM   13  O   LIG     1      87.104  90.229  92.474  1.00  0.00    -0.380 OA
HETATM   14  H   LIG     1      87.218  90.759  93.249  1.00  0.00     0.211 HD
ENDBRANCH   3  13
BRANCH   4  15
HETATM   15  C   LIG     1      87.613  87.275  92.600  1.00  0.00     0.170 C 
BRANCH  15  16
HETATM   16  O   LIG     1      86.462  87.695  93.307  1.00  0.00    -0.380 OA
HETATM   17  H   LIG     1      85.705  87.348  92.858  1.00  0.00     0.211 HD
ENDBRANCH  15  16
BRANCH  15  18
HETATM   18  C   LIG     1      88.040  85.947  93.256  1.00  0.00     0.169 C 
BRANCH  18  19
HETATM   19  O   LIG     1      89.030  86.189  94.236  1.00  0.00    -0.380 OA
HETATM   20  H   LIG     1      88.779  86.950  94.737  1.00  0.00     0.211 HD
ENDBRANCH  18  19
ENDBRANCH  15  18
ENDBRANCH   4  15
TORSDOF 9
ENDMDL
MODEL 7
REMARK VINA RESULT:      -0.0      9.345     10.754
REMARK  9 active torsions:
REMARK  status: ('A' for Active; 'I' for Inactive)
REMARK    1  A    between atoms: C_2  and  C_7 
REMARK    2  A    between atoms: C_3  and  O_13 
REMARK    3  A    between atoms: C_4  and  C_15 
REMARK    4  A    between atoms: C_7  and  O_8 
REMARK    5  A    between atoms: C_7  and  C_10 
REMARK    6  A    between atoms: C_10  and  O_11 
REMARK    7  A    between atoms: C_15  and  O_16 
REMARK    8  A    between atoms: C_15  and  C_18 
REMARK    9  A    between atoms: C_18  and  O_19 
ROOT
HETATM    1  O   LIG     1      88.387  85.085  92.937  1.00  0.00    -0.325 OA
HETATM    2  C   LIG     1      87.376  85.928  92.395  1.00  0.00     0.176 C 
HETATM    3  C   LIG     1      86.648  86.644  93.555  1.00  0.00     0.170 C 
HETATM    4  C   LIG     1      86.170  85.626  94.623  1.00  0.00     0.176 C 
HETATM    5  O   LIG     1      87.296  84.814  94.956  1.00  0.00    -0.325 OA
HETATM    6  C   LIG     1      87.894  84.176  93.868  1.00  0.00     0.294 C 
ENDROOT
BRANCH   2   7
HETATM    7  C   LIG     1      88.016  86.866  91.345  1.00  0.00     0.170 C 
BRANCH   7   8
HETATM    8  O   LIG     1      87.019  87.493  90.563  1.00  0.00    -0.380 OA
HETATM    9  H   LIG     1      86.215  87.485  91.060  1.00  0.00     0.211 HD
ENDBRANCH   7   8
BRANCH   7  10
HETATM   10  C   LIG     1      88.914  87.944  91.976  1.00  0.00     0.169 C 
BRANCH  10  11
HETATM   11  O   LIG     1      90.092  87.355  92.489  1.00  0.00    -0.380 OA
HETATM   12  H   LIG     1      90.816  87.942  92.330  1.00  0.00     0.211 HD
ENDBRANCH  10  11
ENDBRANCH   7  10
ENDBRANCH   2   7
BRANCH   3  13
HETATM   13  O   LIG     1      85.578  87.426  93.058  1.00  0.00    -0.380 OA
HETATM   14  H   LIG     1      85.312  87.072  92.223  1.00  0.00     0.211 HD
ENDBRANCH   3  13
BRANCH   4  15
HETATM   15  C   LIG     1      84.935  84.752  94.256  1.00  0.00     0.170 C 
BRANCH  15  16
HETATM   16  O   LIG     1      83.810  85.591  94.075  1.00  0.00    -0.380 OA
HETATM   17  H   LIG     1      83.084  85.046  93.810  1.00  0.00     0.211 HD
ENDBRANCH  15  16
BRANCH  15  18
HETATM   18  C   LIG     1      84.541  83.770  95.378  1.00  0.00     0.169 C 
BRANCH  18  19
HETATM   19  O   LIG     1      85.006  84.249  96.624  1.00  0.00    -0.380 OA
HETATM   20  H   LIG     1      85.933  84.418  96.555  1.00  0.00     0.211 HD
ENDBRANCH  18  19
ENDBRANCH  15  18
ENDBRANCH   4  15
TORSDOF 9
ENDMDL
MODEL 8
REMARK VINA RESULT:      -0.0      4.610      6.750
REMARK  9 active torsions:
REMARK  status: ('A' for Active; 'I' for Inactive)
REMARK    1  A    between atoms: C_2  and  C_7 
REMARK    2  A    between atoms: C_3  and  O_13 
REMARK    3  A    between atoms: C_4  and  C_15 
REMARK    4  A    between atoms: C_7  and  O_8 
REMARK    5  A    between atoms: C_7  and  C_10 
REMARK    6  A    between atoms: C_10  and  O_11 
REMARK    7  A    between atoms: C_15  and  O_16 
REMARK    8  A    between atoms: C_15  and  C_18 
REMARK    9  A    between atoms: C_18  and  O_19 
ROOT
HETATM    1  O   LIG     1      92.165  85.786  88.912  1.00  0.00    -0.325 OA
HETATM    2  C   LIG     1      92.504  87.115  88.531  1.00  0.00     0.176 C 
HETATM    3  C   LIG     1      93.793  87.535  89.273  1.00  0.00     0.170 C 
HETATM    4  C   LIG     1      93.658  87.289  90.799  1.00  0.00     0.176 C 
HETATM    5  O   LIG     1      93.214  85.943  90.966  1.00  0.00    -0.325 OA
HETATM    6  C   LIG     1      92.033  85.633  90.289  1.00  0.00     0.294 C 
ENDROOT
BRANCH   2   7
HETATM    7  C   LIG     1      92.584  87.188  86.987  1.00  0.00     0.170 C 
BRANCH   7   8
HETATM    8  O   LIG     1      92.605  88.533  86.552  1.00  0.00    -0.380 OA
HETATM    9  H   LIG     1      92.329  89.075  87.276  1.00  0.00     0.211 HD
ENDBRANCH   7   8
BRANCH   7  10
HETATM   10  C   LIG     1      93.811  86.455  86.418  1.00  0.00     0.169 C 
BRANCH  10  11
HETATM   11  O   LIG     1      93.653  85.059  86.563  1.00  0.00    -0.380 OA
HETATM   12  H   LIG     1      92.756  84.880  86.802  1.00  0.00     0.211 HD
ENDBRANCH  10  11
ENDBRANCH   7  10
ENDBRANCH   2   7
BRANCH   3  13
HETATM   13  O   LIG     1      94.112  88.883  88.984  1.00  0.00    -0.380 OA
HETATM   14  H   LIG     1      93.575  89.169  88.260  1.00  0.00     0.211 HD
ENDBRANCH   3  13
BRANCH   4  15
HETATM   15  C   LIG     1      92.759  88.282  91.593  1.00  0.00     0.170 C 
BRANCH  15  16
HETATM   16  O   LIG     1      93.320  89.579  91.517  1.00  0.00    -0.380 OA
HETATM   17  H   LIG     1      92.809  90.146  92.075  1.00  0.00     0.211 HD
ENDBRANCH  15  16
BRANCH  15  18
HETATM   18  C   LIG     1      92.686  87.950  93.098  1.00  0.00     0.169 C 
BRANCH  18  19
HETATM   19  O   LIG     1      93.828  87.213  93.486  1.00  0.00    -0.380 OA
HETATM   20  H   LIG     1      94.599  87.697  93.233  1.00  0.00     0.211 HD
ENDBRANCH  18  19
ENDBRANCH  15  18
ENDBRANCH   4  15
TORSDOF 9
ENDMDL
MODEL 9
REMARK VINA RESULT:      -0.0      4.362      6.399
REMARK  9 active torsions:
REMARK  status: ('A' for Active; 'I' for Inactive)
REMARK    1  A    between atoms: C_2  and  C_7 
REMARK    2  A    between atoms: C_3  and  O_13 
REMARK    3  A    between atoms: C_4  and  C_15 
REMARK    4  A    between atoms: C_7  and  O_8 
REMARK    5  A    between atoms: C_7  and  C_10 
REMARK    6  A    between atoms: C_10  and  O_11 
REMARK    7  A    between atoms: C_15  and  O_16 
REMARK    8  A    between atoms: C_15  and  C_18 
REMARK    9  A    between atoms: C_18  and  O_19 
ROOT
HETATM    1  O   LIG     1      93.216  89.030  88.531  1.00  0.00    -0.325 OA
HETATM    2  C   LIG     1      91.818  89.259  88.668  1.00  0.00     0.176 C 
HETATM    3  C   LIG     1      91.056  88.004  88.186  1.00  0.00     0.170 C 
HETATM    4  C   LIG     1      91.529  87.578  86.772  1.00  0.00     0.176 C 
HETATM    5  O   LIG     1      92.954  87.504  86.815  1.00  0.00    -0.325 OA
HETATM    6  C   LIG     1      93.584  88.677  87.237  1.00  0.00     0.294 C 
ENDROOT
BRANCH   2   7
HETATM    7  C   LIG     1      91.521  89.686  90.125  1.00  0.00     0.170 C 
BRANCH   7   8
HETATM    8  O   LIG     1      90.218  90.223  90.232  1.00  0.00    -0.380 OA
HETATM    9  H   LIG     1      89.907  90.058  91.109  1.00  0.00     0.211 HD
ENDBRANCH   7   8
BRANCH   7  10
HETATM   10  C   LIG     1      91.673  88.529  91.128  1.00  0.00     0.169 C 
BRANCH  10  11
HETATM   11  O   LIG     1      93.037  88.189  91.273  1.00  0.00    -0.380 OA
HETATM   12  H   LIG     1      93.558  88.962  91.122  1.00  0.00     0.211 HD
ENDBRANCH  10  11
ENDBRANCH   7  10
ENDBRANCH   2   7
BRANCH   3  13
HETATM   13  O   LIG     1      89.659  88.229  88.227  1.00  0.00    -0.380 OA
HETATM   14  H   LIG     1      89.367  88.456  87.357  1.00  0.00     0.211 HD
ENDBRANCH   3  13
BRANCH   4  15
HETATM   15  C   LIG     1      91.047  88.451  85.576  1.00  0.00     0.170 C 
BRANCH  15  16
HETATM   16  O   LIG     1      89.636  88.377  85.487  1.00  0.00    -0.380 OA
HETATM   17  H   LIG     1      89.276  88.904  86.185  1.00  0.00     0.211 HD
ENDBRANCH  15  16
BRANCH  15  18
HETATM   18  C   LIG     1      91.574  87.949  84.217  1.00  0.00     0.169 C 
BRANCH  18  19
HETATM   19  O   LIG     1      91.886  86.573  84.298  1.00  0.00    -0.380 OA
HETATM   20  H   LIG     1      91.514  86.227  85.095  1.00  0.00     0.211 HD
ENDBRANCH  18  19
ENDBRANCH  15  18
ENDBRANCH   4  15
TORSDOF 9
ENDMDL
