MODEL 1
REMARK VINA RESULT:      -0.0      0.000      0.000
REMARK  3 active torsions:
REMARK  status: ('A' for Active; 'I' for Inactive)
REMARK    1  A    between atoms: C_8  and  N_11 
REMARK    2  A    between atoms: N_11  and  C_13 
REMARK    3  A    between atoms: C_13  and  C_14 
ROOT
HETATM    1  N   LIG     1      85.133  84.847  89.723  1.00  0.00    -0.207 NA
HETATM    2  N   LIG     1      85.479  82.489  89.873  1.00  0.00    -0.203 NA
HETATM    3  N   LIG     1      86.915  81.737  91.690  1.00  0.00    -0.153 NA
HETATM    4  H   LIG     1      88.146  82.005  93.360  1.00  0.00     0.189 HD
HETATM    5  N   LIG     1      87.573  82.455  92.659  1.00  0.00    -0.273 N 
HETATM    6  C   LIG     1      86.268  82.667  90.953  1.00  0.00     0.187 A 
HETATM    7  C   LIG     1      86.514  83.945  91.454  1.00  0.00     0.090 A 
HETATM    8  C   LIG     1      85.916  85.054  90.803  1.00  0.00     0.143 A 
HETATM    9  C   LIG     1      87.354  83.815  92.551  1.00  0.00     0.097 A 
HETATM   10  C   LIG     1      84.958  83.585  89.319  1.00  0.00     0.202 A 
ENDROOT
BRANCH   8  11
HETATM   11  N   LIG     1      86.052  86.400  91.172  1.00  0.00    -0.353 N 
HETATM   12  H   LIG     1      85.768  86.667  92.103  1.00  0.00     0.162 HD
BRANCH  11  13
HETATM   13  C   LIG     1      86.863  87.345  90.423  1.00  0.00     0.151 C 
BRANCH  13  14
HETATM   14  C   LIG     1      88.271  86.876  90.251  1.00  0.00     0.100 A 
HETATM   15  C   LIG     1      89.002  86.500  89.158  1.00  0.00     0.024 A 
HETATM   16  C   LIG     1      90.290  86.137  89.640  1.00  0.00     0.029 A 
HETATM   17  C   LIG     1      90.250  86.314  90.993  1.00  0.00     0.122 A 
HETATM   18  O   LIG     1      89.024  86.760  91.384  1.00  0.00    -0.307 OA
ENDBRANCH  13  14
ENDBRANCH  11  13
ENDBRANCH   8  11
TORSDOF 3
ENDMDL
MODEL 2
REMARK VINA RESULT:      -0.0      5.754      6.655
REMARK  3 active torsions:
REMARK  status: ('A' for Active; 'I' for Inactive)
REMARK    1  A    between atoms: C_8  and  N_11 
REMARK    2  A    between atoms: N_11  and  C_13 
REMARK    3  A    between atoms: C_13  and  C_14 
ROOT
HETATM    1  N   LIG     1      82.738  88.691  88.268  1.00  0.00    -0.207 NA
HETATM    2  N   LIG     1      81.856  87.385  90.063  1.00  0.00    -0.203 NA
HETATM    3  N   LIG     1      81.402  88.588  92.131  1.00  0.00    -0.153 NA
HETATM    4  H   LIG     1      81.339  90.281  93.358  1.00  0.00     0.189 HD
HETATM    5  N   LIG     1      81.571  89.915  92.445  1.00  0.00    -0.273 N 
HETATM    6  C   LIG     1      81.814  88.482  90.849  1.00  0.00     0.187 A 
HETATM    7  C   LIG     1      82.233  89.721  90.366  1.00  0.00     0.090 A 
HETATM    8  C   LIG     1      82.704  89.805  89.032  1.00  0.00     0.143 A 
HETATM    9  C   LIG     1      82.080  90.647  91.390  1.00  0.00     0.097 A 
HETATM   10  C   LIG     1      82.315  87.551  88.821  1.00  0.00     0.202 A 
ENDROOT
BRANCH   8  11
HETATM   11  N   LIG     1      83.158  90.964  88.386  1.00  0.00    -0.353 N 
HETATM   12  H   LIG     1      82.523  91.746  88.316  1.00  0.00     0.162 HD
BRANCH  11  13
HETATM   13  C   LIG     1      84.562  91.215  88.111  1.00  0.00     0.151 C 
BRANCH  13  14
HETATM   14  C   LIG     1      85.407  91.135  89.341  1.00  0.00     0.100 A 
HETATM   15  C   LIG     1      86.391  90.274  89.742  1.00  0.00     0.024 A 
HETATM   16  C   LIG     1      86.808  90.711  91.030  1.00  0.00     0.029 A 
HETATM   17  C   LIG     1      86.044  91.804  91.323  1.00  0.00     0.122 A 
HETATM   18  O   LIG     1      85.181  92.074  90.306  1.00  0.00    -0.307 OA
ENDBRANCH  13  14
ENDBRANCH  11  13
ENDBRANCH   8  11
TORSDOF 3
ENDMDL
MODEL 3
REMARK VINA RESULT:      -0.0      6.910      8.612
REMARK  3 active torsions:
REMARK  status: ('A' for Active; 'I' for Inactive)
REMARK    1  A    between atoms: C_8  and  N_11 
REMARK    2  A    between atoms: N_11  and  C_13 
REMARK    3  A    between atoms: C_13  and  C_14 
ROOT
HETATM    1  N   LIG     1      86.852  88.482  84.608  1.00  0.00    -0.207 NA
HETATM    2  N   LIG     1      86.132  86.236  84.982  1.00  0.00    -0.203 NA
HETATM    3  N   LIG     1      83.940  85.659  84.095  1.00  0.00    -0.153 NA
HETATM    4  H   LIG     1      82.144  86.047  83.093  1.00  0.00     0.189 HD
HETATM    5  N   LIG     1      83.031  86.423  83.403  1.00  0.00    -0.273 N 
HETATM    6  C   LIG     1      84.978  86.491  84.332  1.00  0.00     0.187 A 
HETATM    7  C   LIG     1      84.725  87.753  83.796  1.00  0.00     0.090 A 
HETATM    8  C   LIG     1      85.707  88.764  83.950  1.00  0.00     0.143 A 
HETATM    9  C   LIG     1      83.472  87.716  83.199  1.00  0.00     0.097 A 
HETATM   10  C   LIG     1      87.002  87.243  85.085  1.00  0.00     0.202 A 
ENDROOT
BRANCH   8  11
HETATM   11  N   LIG     1      85.620  90.080  83.475  1.00  0.00    -0.353 N 
HETATM   12  H   LIG     1      85.491  90.218  82.482  1.00  0.00     0.162 HD
BRANCH  11  13
HETATM   13  C   LIG     1      85.382  91.219  84.344  1.00  0.00     0.151 C 
BRANCH  13  14
HETATM   14  C   LIG     1      84.149  91.054  85.172  1.00  0.00     0.100 A 
HETATM   15  C   LIG     1      83.941  90.911  86.517  1.00  0.00     0.024 A 
HETATM   16  C   LIG     1      82.536  90.779  86.695  1.00  0.00     0.029 A 
HETATM   17  C   LIG     1      81.989  90.847  85.446  1.00  0.00     0.122 A 
HETATM   18  O   LIG     1      82.959  91.011  84.505  1.00  0.00    -0.307 OA
ENDBRANCH  13  14
ENDBRANCH  11  13
ENDBRANCH   8  11
TORSDOF 3
ENDMDL
MODEL 4
REMARK VINA RESULT:      -0.0      4.396      6.565
REMARK  3 active torsions:
REMARK  status: ('A' for Active; 'I' for Inactive)
REMARK    1  A    between atoms: C_8  and  N_11 
REMARK    2  A    between atoms: N_11  and  C_13 
REMARK    3  A    between atoms: C_13  and  C_14 
ROOT
HETATM    1  N   LIG     1      87.587  90.761  90.524  1.00  0.00    -0.207 NA
HETATM    2  N   LIG     1      88.172  90.016  92.716  1.00  0.00    -0.203 NA
HETATM    3  N   LIG     1      87.046  88.003  93.493  1.00  0.00    -0.153 NA
HETATM    4  H   LIG     1      85.723  86.391  93.320  1.00  0.00     0.189 HD
HETATM    5  N   LIG     1      86.113  87.209  92.871  1.00  0.00    -0.273 N 
HETATM    6  C   LIG     1      87.320  88.977  92.598  1.00  0.00     0.187 A 
HETATM    7  C   LIG     1      86.574  88.795  91.434  1.00  0.00     0.090 A 
HETATM    8  C   LIG     1      86.729  89.728  90.377  1.00  0.00     0.143 A 
HETATM    9  C   LIG     1      85.794  87.660  91.605  1.00  0.00     0.097 A 
HETATM   10  C   LIG     1      88.257  90.848  91.676  1.00  0.00     0.202 A 
ENDROOT
BRANCH   8  11
HETATM   11  N   LIG     1      86.065  89.696  89.143  1.00  0.00    -0.353 N 
HETATM   12  H   LIG     1      86.175  88.874  88.567  1.00  0.00     0.162 HD
BRANCH  11  13
HETATM   13  C   LIG     1      84.992  90.614  88.801  1.00  0.00     0.151 C 
BRANCH  13  14
HETATM   14  C   LIG     1      83.886  90.596  89.805  1.00  0.00     0.100 A 
HETATM   15  C   LIG     1      83.415  91.526  90.691  1.00  0.00     0.024 A 
HETATM   16  C   LIG     1      82.345  90.907  91.394  1.00  0.00     0.029 A 
HETATM   17  C   LIG     1      82.242  89.643  90.889  1.00  0.00     0.122 A 
HETATM   18  O   LIG     1      83.178  89.435  89.922  1.00  0.00    -0.307 OA
ENDBRANCH  13  14
ENDBRANCH  11  13
ENDBRANCH   8  11
TORSDOF 3
ENDMDL
MODEL 5
REMARK VINA RESULT:      -0.0     10.787     13.182
REMARK  3 active torsions:
REMARK  status: ('A' for Active; 'I' for Inactive)
REMARK    1  A    between atoms: C_8  and  N_11 
REMARK    2  A    between atoms: N_11  and  C_13 
REMARK    3  A    between atoms: C_13  and  C_14 
ROOT
HETATM    1  N   LIG     1      94.838  95.586  92.774  1.00  0.00    -0.207 NA
HETATM    2  N   LIG     1      94.791  97.912  92.230  1.00  0.00    -0.203 NA
HETATM    3  N   LIG     1      92.621  98.813  91.594  1.00  0.00    -0.153 NA
HETATM    4  H   LIG     1      90.567  98.702  91.211  1.00  0.00     0.189 HD
HETATM    5  N   LIG     1      91.397  98.197  91.493  1.00  0.00    -0.273 N 
HETATM    6  C   LIG     1      93.466  97.835  91.988  1.00  0.00     0.187 A 
HETATM    7  C   LIG     1      92.783  96.628  92.133  1.00  0.00     0.090 A 
HETATM    8  C   LIG     1      93.511  95.482  92.541  1.00  0.00     0.143 A 
HETATM    9  C   LIG     1      91.451  96.854  91.814  1.00  0.00     0.097 A 
HETATM   10  C   LIG     1      95.401  96.786  92.607  1.00  0.00     0.202 A 
ENDROOT
BRANCH   8  11
HETATM   11  N   LIG     1      92.988  94.197  92.739  1.00  0.00    -0.353 N 
HETATM   12  H   LIG     1      92.245  94.087  93.415  1.00  0.00     0.162 HD
BRANCH  11  13
HETATM   13  C   LIG     1      93.219  93.099  91.816  1.00  0.00     0.151 C 
BRANCH  13  14
HETATM   14  C   LIG     1      92.820  93.438  90.417  1.00  0.00     0.100 A 
HETATM   15  C   LIG     1      93.528  93.600  89.258  1.00  0.00     0.024 A 
HETATM   16  C   LIG     1      92.582  93.937  88.251  1.00  0.00     0.029 A 
HETATM   17  C   LIG     1      91.365  93.961  88.870  1.00  0.00     0.122 A 
HETATM   18  O   LIG     1      91.492  93.663  90.192  1.00  0.00    -0.307 OA
ENDBRANCH  13  14
ENDBRANCH  11  13
ENDBRANCH   8  11
TORSDOF 3
ENDMDL
MODEL 6
REMARK VINA RESULT:      -0.0      5.326      7.265
REMARK  3 active torsions:
REMARK  status: ('A' for Active; 'I' for Inactive)
REMARK    1  A    between atoms: C_8  and  N_11 
REMARK    2  A    between atoms: N_11  and  C_13 
REMARK    3  A    between atoms: C_13  and  C_14 
ROOT
HETATM    1  N   LIG     1      93.255  82.206  91.885  1.00  0.00    -0.207 NA
HETATM    2  N   LIG     1      95.407  82.964  91.178  1.00  0.00    -0.203 NA
HETATM    3  N   LIG     1      96.321  84.863  92.397  1.00  0.00    -0.153 NA
HETATM    4  H   LIG     1      96.294  86.362  93.855  1.00  0.00     0.189 HD
HETATM    5  N   LIG     1      95.797  85.585  93.442  1.00  0.00    -0.273 N 
HETATM    6  C   LIG     1      95.386  83.927  92.123  1.00  0.00     0.187 A 
HETATM    7  C   LIG     1      94.296  84.059  92.982  1.00  0.00     0.090 A 
HETATM    8  C   LIG     1      93.208  83.159  92.842  1.00  0.00     0.143 A 
HETATM    9  C   LIG     1      94.554  85.125  93.832  1.00  0.00     0.097 A 
HETATM   10  C   LIG     1      94.343  82.161  91.111  1.00  0.00     0.202 A 
ENDROOT
BRANCH   8  11
HETATM   11  N   LIG     1      92.041  83.145  93.617  1.00  0.00    -0.353 N 
HETATM   12  H   LIG     1      92.137  83.029  94.616  1.00  0.00     0.162 HD
BRANCH  11  13
HETATM   13  C   LIG     1      90.757  83.607  93.119  1.00  0.00     0.151 C 
BRANCH  13  14
HETATM   14  C   LIG     1      90.820  85.002  92.588  1.00  0.00     0.100 A 
HETATM   15  C   LIG     1      90.675  85.531  91.335  1.00  0.00     0.024 A 
HETATM   16  C   LIG     1      90.863  86.935  91.467  1.00  0.00     0.029 A 
HETATM   17  C   LIG     1      91.114  87.160  92.790  1.00  0.00     0.122 A 
HETATM   18  O   LIG     1      91.096  85.991  93.488  1.00  0.00    -0.307 OA
ENDBRANCH  13  14
ENDBRANCH  11  13
ENDBRANCH   8  11
TORSDOF 3
ENDMDL
MODEL 7
REMARK VINA RESULT:      -0.0      7.512      9.447
REMARK  3 active torsions:
REMARK  status: ('A' for Active; 'I' for Inactive)
REMARK    1  A    between atoms: C_8  and  N_11 
REMARK    2  A    between atoms: N_11  and  C_13 
REMARK    3  A    between atoms: C_13  and  C_14 
ROOT
HETATM    1  N   LIG     1      87.681  90.202  86.347  1.00  0.00    -0.207 NA
HETATM    2  N   LIG     1      86.445  91.815  85.094  1.00  0.00    -0.203 NA
HETATM    3  N   LIG     1      87.695  93.025  83.390  1.00  0.00    -0.153 NA
HETATM    4  H   LIG     1      89.406  93.508  82.287  1.00  0.00     0.189 HD
HETATM    5  N   LIG     1      89.015  92.934  83.022  1.00  0.00    -0.273 N 
HETATM    6  C   LIG     1      87.551  92.120  84.383  1.00  0.00     0.187 A 
HETATM    7  C   LIG     1      88.760  91.472  84.632  1.00  0.00     0.090 A 
HETATM    8  C   LIG     1      88.803  90.485  85.650  1.00  0.00     0.143 A 
HETATM    9  C   LIG     1      89.707  91.992  83.760  1.00  0.00     0.097 A 
HETATM   10  C   LIG     1      86.572  90.877  86.034  1.00  0.00     0.202 A 
ENDROOT
BRANCH   8  11
HETATM   11  N   LIG     1      89.926  89.737  86.029  1.00  0.00    -0.353 N 
HETATM   12  H   LIG     1      90.379  89.172  85.324  1.00  0.00     0.162 HD
BRANCH  11  13
HETATM   13  C   LIG     1      90.654  89.976  87.263  1.00  0.00     0.151 C 
BRANCH  13  14
HETATM   14  C   LIG     1      91.106  91.394  87.391  1.00  0.00     0.100 A 
HETATM   15  C   LIG     1      90.771  92.406  88.248  1.00  0.00     0.024 A 
HETATM   16  C   LIG     1      91.536  93.538  87.853  1.00  0.00     0.029 A 
HETATM   17  C   LIG     1      92.280  93.135  86.782  1.00  0.00     0.122 A 
HETATM   18  O   LIG     1      92.027  91.832  86.483  1.00  0.00    -0.307 OA
ENDBRANCH  13  14
ENDBRANCH  11  13
ENDBRANCH   8  11
TORSDOF 3
ENDMDL
MODEL 8
REMARK VINA RESULT:      -0.0     10.043     12.040
REMARK  3 active torsions:
REMARK  status: ('A' for Active; 'I' for Inactive)
REMARK    1  A    between atoms: C_8  and  N_11 
REMARK    2  A    between atoms: N_11  and  C_13 
REMARK    3  A    between atoms: C_13  and  C_14 
ROOT
HETATM    1  N   LIG     1      95.026  89.349  86.308  1.00  0.00    -0.207 NA
HETATM    2  N   LIG     1      94.848  89.759  88.654  1.00  0.00    -0.203 NA
HETATM    3  N   LIG     1      94.430  92.068  89.303  1.00  0.00    -0.153 NA
HETATM    4  H   LIG     1      94.108  94.104  88.942  1.00  0.00     0.189 HD
HETATM    5  N   LIG     1      94.278  93.195  88.532  1.00  0.00    -0.273 N 
HETATM    6  C   LIG     1      94.637  91.070  88.415  1.00  0.00     0.187 A 
HETATM    7  C   LIG     1      94.612  91.563  87.112  1.00  0.00     0.090 A 
HETATM    8  C   LIG     1      94.814  90.656  86.040  1.00  0.00     0.143 A 
HETATM    9  C   LIG     1      94.383  92.930  87.180  1.00  0.00     0.097 A 
HETATM   10  C   LIG     1      95.032  88.974  87.590  1.00  0.00     0.202 A 
ENDROOT
BRANCH   8  11
HETATM   11  N   LIG     1      94.817  90.976  84.676  1.00  0.00    -0.353 N 
HETATM   12  H   LIG     1      93.989  91.405  84.287  1.00  0.00     0.162 HD
BRANCH  11  13
HETATM   13  C   LIG     1      96.031  91.027  83.880  1.00  0.00     0.151 C 
BRANCH  13  14
HETATM   14  C   LIG     1      97.058  91.941  84.466  1.00  0.00     0.100 A 
HETATM   15  C   LIG     1      98.294  91.727  85.012  1.00  0.00     0.024 A 
HETATM   16  C   LIG     1      98.783  93.002  85.413  1.00  0.00     0.029 A 
HETATM   17  C   LIG     1      97.808  93.900  85.085  1.00  0.00     0.122 A 
HETATM   18  O   LIG     1      96.747  93.269  84.511  1.00  0.00    -0.307 OA
ENDBRANCH  13  14
ENDBRANCH  11  13
ENDBRANCH   8  11
TORSDOF 3
ENDMDL
MODEL 9
REMARK VINA RESULT:      -0.0      3.072      4.698
REMARK  3 active torsions:
REMARK  status: ('A' for Active; 'I' for Inactive)
REMARK    1  A    between atoms: C_8  and  N_11 
REMARK    2  A    between atoms: N_11  and  C_13 
REMARK    3  A    between atoms: C_13  and  C_14 
ROOT
HETATM    1  N   LIG     1      90.503  87.475  89.816  1.00  0.00    -0.207 NA
HETATM    2  N   LIG     1      88.125  87.693  89.858  1.00  0.00    -0.203 NA
HETATM    3  N   LIG     1      86.943  86.170  91.345  1.00  0.00    -0.153 NA
HETATM    4  H   LIG     1      86.807  84.622  92.746  1.00  0.00     0.189 HD
HETATM    5  N   LIG     1      87.423  85.188  92.178  1.00  0.00    -0.273 N 
HETATM    6  C   LIG     1      88.043  86.696  90.764  1.00  0.00     0.187 A 
HETATM    7  C   LIG     1      89.193  86.058  91.227  1.00  0.00     0.090 A 
HETATM    8  C   LIG     1      90.451  86.477  90.725  1.00  0.00     0.143 A 
HETATM    9  C   LIG     1      88.800  85.085  92.136  1.00  0.00     0.097 A 
HETATM   10  C   LIG     1      89.346  88.024  89.435  1.00  0.00     0.202 A 
ENDROOT
BRANCH   8  11
HETATM   11  N   LIG     1      91.700  85.951  91.080  1.00  0.00    -0.353 N 
HETATM   12  H   LIG     1      91.968  85.983  92.054  1.00  0.00     0.162 HD
BRANCH  11  13
HETATM   13  C   LIG     1      92.473  85.089  90.202  1.00  0.00     0.151 C 
BRANCH  13  14
HETATM   14  C   LIG     1      91.697  83.896  89.749  1.00  0.00     0.100 A 
HETATM   15  C   LIG     1      91.228  83.497  88.527  1.00  0.00     0.024 A 
HETATM   16  C   LIG     1      90.542  82.270  88.740  1.00  0.00     0.029 A 
HETATM   17  C   LIG     1      90.637  82.012  90.077  1.00  0.00     0.122 A 
HETATM   18  O   LIG     1      91.334  82.996  90.709  1.00  0.00    -0.307 OA
ENDBRANCH  13  14
ENDBRANCH  11  13
ENDBRANCH   8  11
TORSDOF 3
ENDMDL
