MODEL 1
REMARK VINA RESULT:      -0.0      0.000      0.000
REMARK  5 active torsions:
REMARK  status: ('A' for Active; 'I' for Inactive)
REMARK    1  A    between atoms: S_1  and  C_4 
REMARK    2  A    between atoms: S_1  and  N_13 
REMARK    3  A    between atoms: C_7  and  N_10 
REMARK    4  A    between atoms: N_13  and  C_15 
REMARK    5  A    between atoms: C_15  and  C_16 
ROOT
HETATM    1  S   LIG     1      88.889  94.501  93.721  1.00  0.00     0.261 S 
HETATM    2  O   LIG     1      90.210  95.145  93.804  1.00  0.00    -0.200 OA
HETATM    3  O   LIG     1      88.185  94.078  94.941  1.00  0.00    -0.200 OA
ENDROOT
BRANCH   1   4
HETATM    4  C   LIG     1      88.993  93.093  92.622  1.00  0.00     0.103 A 
HETATM    5  C   LIG     1      89.415  93.271  91.289  1.00  0.00     0.014 A 
HETATM    6  C   LIG     1      89.473  92.161  90.423  1.00  0.00     0.017 A 
HETATM    7  C   LIG     1      89.114  90.880  90.891  1.00  0.00     0.050 A 
HETATM    8  C   LIG     1      88.699  90.708  92.227  1.00  0.00     0.017 A 
HETATM    9  C   LIG     1      88.639  91.814  93.097  1.00  0.00     0.014 A 
BRANCH   7  10
HETATM   10  N   LIG     1      89.169  89.785  90.031  1.00  0.00    -0.398 N 
HETATM   11  H   LIG     1      89.976  89.176  90.005  1.00  0.00     0.156 HD
HETATM   12  H   LIG     1      88.358  89.486  89.509  1.00  0.00     0.156 HD
ENDBRANCH   7  10
ENDBRANCH   1   4
BRANCH   1  13
HETATM   13  N   LIG     1      87.834  95.564  92.864  1.00  0.00    -0.297 N 
HETATM   14  H   LIG     1      88.230  96.493  92.732  1.00  0.00     0.173 HD
BRANCH  13  15
HETATM   15  C   LIG     1      86.398  95.566  93.156  1.00  0.00     0.138 C 
BRANCH  15  16
HETATM   16  C   LIG     1      85.622  94.711  92.140  1.00  0.00     0.138 C 
HETATM   17  C   LIG     1      85.378  93.266  92.624  1.00  0.00     0.032 C 
HETATM   18  C   LIG     1      84.706  92.431  91.529  1.00  0.00     0.005 C 
HETATM   19  C   LIG     1      85.516  92.530  90.232  1.00  0.00     0.032 C 
HETATM   20  C   LIG     1      85.753  94.003  89.865  1.00  0.00     0.142 C 
HETATM   21  O   LIG     1      86.398  94.672  90.944  1.00  0.00    -0.355 OA
ENDBRANCH  15  16
ENDBRANCH  13  15
ENDBRANCH   1  13
TORSDOF 5
ENDMDL
MODEL 2
REMARK VINA RESULT:      -0.0      5.238      7.103
REMARK  5 active torsions:
REMARK  status: ('A' for Active; 'I' for Inactive)
REMARK    1  A    between atoms: S_1  and  C_4 
REMARK    2  A    between atoms: S_1  and  N_13 
REMARK    3  A    between atoms: C_7  and  N_10 
REMARK    4  A    between atoms: N_13  and  C_15 
REMARK    5  A    between atoms: C_15  and  C_16 
ROOT
HETATM    1  S   LIG     1      86.870  88.206  88.073  1.00  0.00     0.261 S 
HETATM    2  O   LIG     1      86.118  87.598  86.963  1.00  0.00    -0.200 OA
HETATM    3  O   LIG     1      87.771  89.342  87.833  1.00  0.00    -0.200 OA
ENDROOT
BRANCH   1   4
HETATM    4  C   LIG     1      87.795  86.930  88.920  1.00  0.00     0.103 A 
HETATM    5  C   LIG     1      87.122  85.824  89.476  1.00  0.00     0.014 A 
HETATM    6  C   LIG     1      87.855  84.834  90.160  1.00  0.00     0.017 A 
HETATM    7  C   LIG     1      89.255  84.951  90.284  1.00  0.00     0.050 A 
HETATM    8  C   LIG     1      89.923  86.056  89.720  1.00  0.00     0.017 A 
HETATM    9  C   LIG     1      89.195  87.048  89.035  1.00  0.00     0.014 A 
BRANCH   7  10
HETATM   10  N   LIG     1      89.977  83.973  90.965  1.00  0.00    -0.398 N 
HETATM   11  H   LIG     1      89.538  83.379  91.655  1.00  0.00     0.156 HD
HETATM   12  H   LIG     1      90.922  83.736  90.698  1.00  0.00     0.156 HD
ENDBRANCH   7  10
ENDBRANCH   1   4
BRANCH   1  13
HETATM   13  N   LIG     1      85.734  88.700  89.275  1.00  0.00    -0.297 N 
HETATM   14  H   LIG     1      84.770  88.663  88.948  1.00  0.00     0.173 HD
BRANCH  13  15
HETATM   15  C   LIG     1      86.027  89.852  90.132  1.00  0.00     0.138 C 
BRANCH  15  16
HETATM   16  C   LIG     1      86.585  89.406  91.494  1.00  0.00     0.138 C 
HETATM   17  C   LIG     1      88.128  89.401  91.544  1.00  0.00     0.032 C 
HETATM   18  C   LIG     1      88.628  88.840  92.879  1.00  0.00     0.005 C 
HETATM   19  C   LIG     1      87.987  87.472  93.138  1.00  0.00     0.032 C 
HETATM   20  C   LIG     1      86.459  87.569  93.011  1.00  0.00     0.142 C 
HETATM   21  O   LIG     1      86.112  88.082  91.728  1.00  0.00    -0.355 OA
ENDBRANCH  15  16
ENDBRANCH  13  15
ENDBRANCH   1  13
TORSDOF 5
ENDMDL
MODEL 3
REMARK VINA RESULT:      -0.0      7.329      9.333
REMARK  5 active torsions:
REMARK  status: ('A' for Active; 'I' for Inactive)
REMARK    1  A    between atoms: S_1  and  C_4 
REMARK    2  A    between atoms: S_1  and  N_13 
REMARK    3  A    between atoms: C_7  and  N_10 
REMARK    4  A    between atoms: N_13  and  C_15 
REMARK    5  A    between atoms: C_15  and  C_16 
ROOT
HETATM    1  S   LIG     1      90.466  87.014  92.661  1.00  0.00     0.261 S 
HETATM    2  O   LIG     1      89.916  88.374  92.786  1.00  0.00    -0.200 OA
HETATM    3  O   LIG     1      91.912  86.804  92.500  1.00  0.00    -0.200 OA
ENDROOT
BRANCH   1   4
HETATM    4  C   LIG     1      89.627  86.165  91.328  1.00  0.00     0.103 A 
HETATM    5  C   LIG     1      88.228  86.008  91.364  1.00  0.00     0.014 A 
HETATM    6  C   LIG     1      87.577  85.319  90.321  1.00  0.00     0.017 A 
HETATM    7  C   LIG     1      88.325  84.793  89.247  1.00  0.00     0.050 A 
HETATM    8  C   LIG     1      89.724  84.959  89.214  1.00  0.00     0.017 A 
HETATM    9  C   LIG     1      90.379  85.647  90.254  1.00  0.00     0.014 A 
BRANCH   7  10
HETATM   10  N   LIG     1      87.680  84.108  88.219  1.00  0.00    -0.398 N 
HETATM   11  H   LIG     1      86.711  84.287  87.995  1.00  0.00     0.156 HD
HETATM   12  H   LIG     1      88.190  83.513  87.583  1.00  0.00     0.156 HD
ENDBRANCH   7  10
ENDBRANCH   1   4
BRANCH   1  13
HETATM   13  N   LIG     1      89.969  86.112  94.046  1.00  0.00    -0.297 N 
HETATM   14  H   LIG     1      89.559  86.696  94.773  1.00  0.00     0.173 HD
BRANCH  13  15
HETATM   15  C   LIG     1      90.814  85.030  94.559  1.00  0.00     0.138 C 
BRANCH  15  16
HETATM   16  C   LIG     1      90.330  83.659  94.057  1.00  0.00     0.138 C 
HETATM   17  C   LIG     1      91.069  83.183  92.788  1.00  0.00     0.032 C 
HETATM   18  C   LIG     1      90.469  81.873  92.268  1.00  0.00     0.005 C 
HETATM   19  C   LIG     1      88.955  82.031  92.090  1.00  0.00     0.032 C 
HETATM   20  C   LIG     1      88.321  82.561  93.385  1.00  0.00     0.142 C 
HETATM   21  O   LIG     1      88.941  83.787  93.761  1.00  0.00    -0.355 OA
ENDBRANCH  15  16
ENDBRANCH  13  15
ENDBRANCH   1  13
TORSDOF 5
ENDMDL
MODEL 4
REMARK VINA RESULT:      -0.0      3.284      4.895
REMARK  5 active torsions:
REMARK  status: ('A' for Active; 'I' for Inactive)
REMARK    1  A    between atoms: S_1  and  C_4 
REMARK    2  A    between atoms: S_1  and  N_13 
REMARK    3  A    between atoms: C_7  and  N_10 
REMARK    4  A    between atoms: N_13  and  C_15 
REMARK    5  A    between atoms: C_15  and  C_16 
ROOT
HETATM    1  S   LIG     1      88.085  90.037  92.158  1.00  0.00     0.261 S 
HETATM    2  O   LIG     1      88.059  88.660  91.640  1.00  0.00    -0.200 OA
HETATM    3  O   LIG     1      86.845  90.695  92.597  1.00  0.00    -0.200 OA
ENDROOT
BRANCH   1   4
HETATM    4  C   LIG     1      88.885  91.098  90.959  1.00  0.00     0.103 A 
HETATM    5  C   LIG     1      90.203  90.821  90.544  1.00  0.00     0.014 A 
HETATM    6  C   LIG     1      90.834  91.673  89.616  1.00  0.00     0.017 A 
HETATM    7  C   LIG     1      90.147  92.794  89.105  1.00  0.00     0.050 A 
HETATM    8  C   LIG     1      88.826  93.062  89.520  1.00  0.00     0.017 A 
HETATM    9  C   LIG     1      88.191  92.213  90.447  1.00  0.00     0.014 A 
BRANCH   7  10
HETATM   10  N   LIG     1      90.775  93.638  88.191  1.00  0.00    -0.398 N 
HETATM   11  H   LIG     1      91.260  93.271  87.384  1.00  0.00     0.156 HD
HETATM   12  H   LIG     1      90.652  94.639  88.231  1.00  0.00     0.156 HD
ENDBRANCH   7  10
ENDBRANCH   1   4
BRANCH   1  13
HETATM   13  N   LIG     1      89.185  90.083  93.487  1.00  0.00    -0.297 N 
HETATM   14  H   LIG     1      89.474  89.156  93.795  1.00  0.00     0.173 HD
BRANCH  13  15
HETATM   15  C   LIG     1      88.975  91.034  94.582  1.00  0.00     0.138 C 
BRANCH  15  16
HETATM   16  C   LIG     1      89.846  92.289  94.405  1.00  0.00     0.138 C 
HETATM   17  C   LIG     1      89.106  93.447  93.704  1.00  0.00     0.032 C 
HETATM   18  C   LIG     1      90.053  94.625  93.451  1.00  0.00     0.005 C 
HETATM   19  C   LIG     1      91.300  94.136  92.708  1.00  0.00     0.032 C 
HETATM   20  C   LIG     1      91.932  92.950  93.452  1.00  0.00     0.142 C 
HETATM   21  O   LIG     1      90.970  91.912  93.612  1.00  0.00    -0.355 OA
ENDBRANCH  15  16
ENDBRANCH  13  15
ENDBRANCH   1  13
TORSDOF 5
ENDMDL
MODEL 5
REMARK VINA RESULT:      -0.0      3.460      5.006
REMARK  5 active torsions:
REMARK  status: ('A' for Active; 'I' for Inactive)
REMARK    1  A    between atoms: S_1  and  C_4 
REMARK    2  A    between atoms: S_1  and  N_13 
REMARK    3  A    between atoms: C_7  and  N_10 
REMARK    4  A    between atoms: N_13  and  C_15 
REMARK    5  A    between atoms: C_15  and  C_16 
ROOT
HETATM    1  S   LIG     1      87.320  92.971  89.886  1.00  0.00     0.261 S 
HETATM    2  O   LIG     1      86.812  93.189  91.251  1.00  0.00    -0.200 OA
HETATM    3  O   LIG     1      86.420  92.514  88.817  1.00  0.00    -0.200 OA
ENDROOT
BRANCH   1   4
HETATM    4  C   LIG     1      88.717  91.855  89.954  1.00  0.00     0.103 A 
HETATM    5  C   LIG     1      89.844  92.185  90.731  1.00  0.00     0.014 A 
HETATM    6  C   LIG     1      90.949  91.312  90.762  1.00  0.00     0.017 A 
HETATM    7  C   LIG     1      90.923  90.113  90.020  1.00  0.00     0.050 A 
HETATM    8  C   LIG     1      89.790  89.785  89.249  1.00  0.00     0.017 A 
HETATM    9  C   LIG     1      88.683  90.655  89.215  1.00  0.00     0.014 A 
BRANCH   7  10
HETATM   10  N   LIG     1      92.019  89.253  90.049  1.00  0.00    -0.398 N 
HETATM   11  H   LIG     1      92.937  89.579  90.321  1.00  0.00     0.156 HD
HETATM   12  H   LIG     1      91.909  88.256  89.930  1.00  0.00     0.156 HD
ENDBRANCH   7  10
ENDBRANCH   1   4
BRANCH   1  13
HETATM   13  N   LIG     1      88.045  94.441  89.350  1.00  0.00    -0.297 N 
HETATM   14  H   LIG     1      87.843  95.230  89.962  1.00  0.00     0.173 HD
BRANCH  13  15
HETATM   15  C   LIG     1      88.047  94.782  87.924  1.00  0.00     0.138 C 
BRANCH  15  16
HETATM   16  C   LIG     1      89.386  94.412  87.265  1.00  0.00     0.138 C 
HETATM   17  C   LIG     1      89.367  93.024  86.590  1.00  0.00     0.032 C 
HETATM   18  C   LIG     1      90.755  92.659  86.053  1.00  0.00     0.005 C 
HETATM   19  C   LIG     1      91.795  92.801  87.170  1.00  0.00     0.032 C 
HETATM   20  C   LIG     1      91.698  94.192  87.814  1.00  0.00     0.142 C 
HETATM   21  O   LIG     1      90.374  94.412  88.292  1.00  0.00    -0.355 OA
ENDBRANCH  15  16
ENDBRANCH  13  15
ENDBRANCH   1  13
TORSDOF 5
ENDMDL
MODEL 6
REMARK VINA RESULT:      -0.0      5.792      7.593
REMARK  5 active torsions:
REMARK  status: ('A' for Active; 'I' for Inactive)
REMARK    1  A    between atoms: S_1  and  C_4 
REMARK    2  A    between atoms: S_1  and  N_13 
REMARK    3  A    between atoms: C_7  and  N_10 
REMARK    4  A    between atoms: N_13  and  C_15 
REMARK    5  A    between atoms: C_15  and  C_16 
ROOT
HETATM    1  S   LIG     1      90.503  89.155  95.729  1.00  0.00     0.261 S 
HETATM    2  O   LIG     1      90.710  90.161  96.784  1.00  0.00    -0.200 OA
HETATM    3  O   LIG     1      89.329  88.271  95.759  1.00  0.00    -0.200 OA
ENDROOT
BRANCH   1   4
HETATM    4  C   LIG     1      91.967  88.134  95.600  1.00  0.00     0.103 A 
HETATM    5  C   LIG     1      93.215  88.725  95.324  1.00  0.00     0.014 A 
HETATM    6  C   LIG     1      94.359  87.912  95.202  1.00  0.00     0.017 A 
HETATM    7  C   LIG     1      94.253  86.515  95.360  1.00  0.00     0.050 A 
HETATM    8  C   LIG     1      93.002  85.930  95.643  1.00  0.00     0.017 A 
HETATM    9  C   LIG     1      91.856  86.739  95.766  1.00  0.00     0.014 A 
BRANCH   7  10
HETATM   10  N   LIG     1      95.385  85.712  95.235  1.00  0.00    -0.398 N 
HETATM   11  H   LIG     1      96.316  86.099  95.314  1.00  0.00     0.156 HD
HETATM   12  H   LIG     1      95.314  84.706  95.195  1.00  0.00     0.156 HD
ENDBRANCH   7  10
ENDBRANCH   1   4
BRANCH   1  13
HETATM   13  N   LIG     1      90.488  89.975  94.211  1.00  0.00    -0.297 N 
HETATM   14  H   LIG     1      90.437  90.989  94.308  1.00  0.00     0.173 HD
BRANCH  13  15
HETATM   15  C   LIG     1      89.696  89.445  93.098  1.00  0.00     0.138 C 
BRANCH  15  16
HETATM   16  C   LIG     1      90.570  88.627  92.133  1.00  0.00     0.138 C 
HETATM   17  C   LIG     1      90.548  87.112  92.431  1.00  0.00     0.032 C 
HETATM   18  C   LIG     1      91.522  86.362  91.516  1.00  0.00     0.005 C 
HETATM   19  C   LIG     1      92.913  87.000  91.608  1.00  0.00     0.032 C 
HETATM   20  C   LIG     1      92.822  88.512  91.352  1.00  0.00     0.142 C 
HETATM   21  O   LIG     1      91.907  89.104  92.269  1.00  0.00    -0.355 OA
ENDBRANCH  15  16
ENDBRANCH  13  15
ENDBRANCH   1  13
TORSDOF 5
ENDMDL
MODEL 7
REMARK VINA RESULT:      -0.0      3.739      5.760
REMARK  5 active torsions:
REMARK  status: ('A' for Active; 'I' for Inactive)
REMARK    1  A    between atoms: S_1  and  C_4 
REMARK    2  A    between atoms: S_1  and  N_13 
REMARK    3  A    between atoms: C_7  and  N_10 
REMARK    4  A    between atoms: N_13  and  C_15 
REMARK    5  A    between atoms: C_15  and  C_16 
ROOT
HETATM    1  S   LIG     1      86.315  88.380  90.614  1.00  0.00     0.261 S 
HETATM    2  O   LIG     1      85.442  87.244  90.275  1.00  0.00    -0.200 OA
HETATM    3  O   LIG     1      87.474  88.194  91.499  1.00  0.00    -0.200 OA
ENDROOT
BRANCH   1   4
HETATM    4  C   LIG     1      85.315  89.709  91.275  1.00  0.00     0.103 A 
HETATM    5  C   LIG     1      84.267  90.250  90.506  1.00  0.00     0.014 A 
HETATM    6  C   LIG     1      83.498  91.310  91.025  1.00  0.00     0.017 A 
HETATM    7  C   LIG     1      83.777  91.823  92.308  1.00  0.00     0.050 A 
HETATM    8  C   LIG     1      84.824  91.273  93.076  1.00  0.00     0.017 A 
HETATM    9  C   LIG     1      85.595  90.212  92.561  1.00  0.00     0.014 A 
BRANCH   7  10
HETATM   10  N   LIG     1      83.019  92.875  92.818  1.00  0.00    -0.398 N 
HETATM   11  H   LIG     1      83.455  93.714  93.176  1.00  0.00     0.156 HD
HETATM   12  H   LIG     1      82.013  92.893  92.723  1.00  0.00     0.156 HD
ENDBRANCH   7  10
ENDBRANCH   1   4
BRANCH   1  13
HETATM   13  N   LIG     1      86.901  89.055  89.138  1.00  0.00    -0.297 N 
HETATM   14  H   LIG     1      86.707  88.468  88.328  1.00  0.00     0.173 HD
BRANCH  13  15
HETATM   15  C   LIG     1      88.214  89.706  89.099  1.00  0.00     0.138 C 
BRANCH  15  16
HETATM   16  C   LIG     1      88.082  91.233  89.217  1.00  0.00     0.138 C 
HETATM   17  C   LIG     1      88.244  91.746  90.664  1.00  0.00     0.032 C 
HETATM   18  C   LIG     1      87.990  93.255  90.740  1.00  0.00     0.005 C 
HETATM   19  C   LIG     1      86.634  93.583  90.105  1.00  0.00     0.032 C 
HETATM   20  C   LIG     1      86.549  92.985  88.693  1.00  0.00     0.142 C 
HETATM   21  O   LIG     1      86.782  91.581  88.748  1.00  0.00    -0.355 OA
ENDBRANCH  15  16
ENDBRANCH  13  15
ENDBRANCH   1  13
TORSDOF 5
ENDMDL
MODEL 8
REMARK VINA RESULT:       0.0      7.754      9.926
REMARK  5 active torsions:
REMARK  status: ('A' for Active; 'I' for Inactive)
REMARK    1  A    between atoms: S_1  and  C_4 
REMARK    2  A    between atoms: S_1  and  N_13 
REMARK    3  A    between atoms: C_7  and  N_10 
REMARK    4  A    between atoms: N_13  and  C_15 
REMARK    5  A    between atoms: C_15  and  C_16 
ROOT
HETATM    1  S   LIG     1      87.363  86.029  88.461  1.00  0.00     0.261 S 
HETATM    2  O   LIG     1      86.628  85.840  89.722  1.00  0.00    -0.200 OA
HETATM    3  O   LIG     1      86.645  86.334  87.215  1.00  0.00    -0.200 OA
ENDROOT
BRANCH   1   4
HETATM    4  C   LIG     1      88.403  84.602  88.171  1.00  0.00     0.103 A 
HETATM    5  C   LIG     1      89.371  84.232  89.125  1.00  0.00     0.014 A 
HETATM    6  C   LIG     1      90.201  83.120  88.880  1.00  0.00     0.017 A 
HETATM    7  C   LIG     1      90.059  82.383  87.686  1.00  0.00     0.050 A 
HETATM    8  C   LIG     1      89.085  82.755  86.738  1.00  0.00     0.017 A 
HETATM    9  C   LIG     1      88.252  83.865  86.979  1.00  0.00     0.014 A 
BRANCH   7  10
HETATM   10  N   LIG     1      90.884  81.286  87.443  1.00  0.00    -0.398 N 
HETATM   11  H   LIG     1      90.516  80.345  87.425  1.00  0.00     0.156 HD
HETATM   12  H   LIG     1      91.842  81.405  87.146  1.00  0.00     0.156 HD
ENDBRANCH   7  10
ENDBRANCH   1   4
BRANCH   1  13
HETATM   13  N   LIG     1      88.519  87.287  88.706  1.00  0.00    -0.297 N 
HETATM   14  H   LIG     1      88.377  87.792  89.580  1.00  0.00     0.173 HD
BRANCH  13  15
HETATM   15  C   LIG     1      88.923  88.141  87.586  1.00  0.00     0.138 C 
BRANCH  15  16
HETATM   16  C   LIG     1      90.249  87.664  86.971  1.00  0.00     0.138 C 
HETATM   17  C   LIG     1      90.053  86.733  85.755  1.00  0.00     0.032 C 
HETATM   18  C   LIG     1      91.399  86.197  85.257  1.00  0.00     0.005 C 
HETATM   19  C   LIG     1      92.164  85.557  86.420  1.00  0.00     0.032 C 
HETATM   20  C   LIG     1      92.257  86.538  87.599  1.00  0.00     0.142 C 
HETATM   21  O   LIG     1      90.951  86.952  87.988  1.00  0.00    -0.355 OA
ENDBRANCH  15  16
ENDBRANCH  13  15
ENDBRANCH   1  13
TORSDOF 5
ENDMDL
MODEL 9
REMARK VINA RESULT:       0.0      6.839      8.790
REMARK  5 active torsions:
REMARK  status: ('A' for Active; 'I' for Inactive)
REMARK    1  A    between atoms: S_1  and  C_4 
REMARK    2  A    between atoms: S_1  and  N_13 
REMARK    3  A    between atoms: C_7  and  N_10 
REMARK    4  A    between atoms: N_13  and  C_15 
REMARK    5  A    between atoms: C_15  and  C_16 
ROOT
HETATM    1  S   LIG     1      94.535  95.043  85.852  1.00  0.00     0.261 S 
HETATM    2  O   LIG     1      95.624  95.904  86.341  1.00  0.00    -0.200 OA
HETATM    3  O   LIG     1      93.573  95.545  84.860  1.00  0.00    -0.200 OA
ENDROOT
BRANCH   1   4
HETATM    4  C   LIG     1      93.616  94.412  87.251  1.00  0.00     0.103 A 
HETATM    5  C   LIG     1      94.276  93.664  88.247  1.00  0.00     0.014 A 
HETATM    6  C   LIG     1      93.541  93.152  89.334  1.00  0.00     0.017 A 
HETATM    7  C   LIG     1      92.154  93.390  89.425  1.00  0.00     0.050 A 
HETATM    8  C   LIG     1      91.501  94.144  88.429  1.00  0.00     0.017 A 
HETATM    9  C   LIG     1      92.231  94.659  87.340  1.00  0.00     0.014 A 
BRANCH   7  10
HETATM   10  N   LIG     1      91.429  92.878  90.499  1.00  0.00    -0.398 N 
HETATM   11  H   LIG     1      90.434  93.032  90.583  1.00  0.00     0.156 HD
HETATM   12  H   LIG     1      91.844  92.229  91.152  1.00  0.00     0.156 HD
ENDBRANCH   7  10
ENDBRANCH   1   4
BRANCH   1  13
HETATM   13  N   LIG     1      95.244  93.613  85.197  1.00  0.00    -0.297 N 
HETATM   14  H   LIG     1      96.255  93.684  85.092  1.00  0.00     0.173 HD
BRANCH  13  15
HETATM   15  C   LIG     1      94.581  92.900  84.102  1.00  0.00     0.138 C 
BRANCH  15  16
HETATM   16  C   LIG     1      93.764  91.708  84.627  1.00  0.00     0.138 C 
HETATM   17  C   LIG     1      92.276  92.048  84.859  1.00  0.00     0.032 C 
HETATM   18  C   LIG     1      91.538  90.863  85.490  1.00  0.00     0.005 C 
HETATM   19  C   LIG     1      92.280  90.401  86.748  1.00  0.00     0.032 C 
HETATM   20  C   LIG     1      93.760  90.142  86.428  1.00  0.00     0.142 C 
HETATM   21  O   LIG     1      94.345  91.314  85.868  1.00  0.00    -0.355 OA
ENDBRANCH  15  16
ENDBRANCH  13  15
ENDBRANCH   1  13
TORSDOF 5
ENDMDL
