MODEL 1
REMARK VINA RESULT:      -0.0      0.000      0.000
REMARK  5 active torsions:
REMARK  status: ('A' for Active; 'I' for Inactive)
REMARK    1  A    between atoms: S_1  and  C_4 
REMARK    2  A    between atoms: S_1  and  N_13 
REMARK    3  A    between atoms: C_7  and  N_10 
REMARK    4  A    between atoms: N_13  and  C_15 
REMARK    5  A    between atoms: C_15  and  C_16 
ROOT
HETATM    1  S   LIG     1      87.001  83.378  95.226  1.00  0.00     0.261 S 
HETATM    2  O   LIG     1      86.644  83.977  96.523  1.00  0.00    -0.200 OA
HETATM    3  O   LIG     1      86.274  82.205  94.719  1.00  0.00    -0.200 OA
ENDROOT
BRANCH   1   4
HETATM    4  C   LIG     1      88.749  82.997  95.220  1.00  0.00     0.103 A 
HETATM    5  C   LIG     1      89.693  84.020  95.440  1.00  0.00     0.014 A 
HETATM    6  C   LIG     1      91.068  83.717  95.412  1.00  0.00     0.017 A 
HETATM    7  C   LIG     1      91.495  82.395  95.168  1.00  0.00     0.050 A 
HETATM    8  C   LIG     1      90.546  81.375  94.955  1.00  0.00     0.017 A 
HETATM    9  C   LIG     1      89.170  81.674  94.982  1.00  0.00     0.014 A 
BRANCH   7  10
HETATM   10  N   LIG     1      92.856  82.098  95.136  1.00  0.00    -0.398 N 
HETATM   11  H   LIG     1      93.189  81.184  94.861  1.00  0.00     0.156 HD
HETATM   12  H   LIG     1      93.554  82.818  95.255  1.00  0.00     0.156 HD
ENDBRANCH   7  10
ENDBRANCH   1   4
BRANCH   1  13
HETATM   13  N   LIG     1      86.885  84.610  94.024  1.00  0.00    -0.297 N 
HETATM   14  H   LIG     1      86.429  85.456  94.365  1.00  0.00     0.173 HD
BRANCH  13  15
HETATM   15  C   LIG     1      86.533  84.261  92.645  1.00  0.00     0.138 C 
BRANCH  15  16
HETATM   16  C   LIG     1      87.786  84.149  91.761  1.00  0.00     0.138 C 
HETATM   17  C   LIG     1      88.316  82.704  91.639  1.00  0.00     0.032 C 
HETATM   18  C   LIG     1      89.626  82.669  90.846  1.00  0.00     0.005 C 
HETATM   19  C   LIG     1      90.628  83.656  91.457  1.00  0.00     0.032 C 
HETATM   20  C   LIG     1      89.990  85.047  91.589  1.00  0.00     0.142 C 
HETATM   21  O   LIG     1      88.795  84.961  92.358  1.00  0.00    -0.355 OA
ENDBRANCH  15  16
ENDBRANCH  13  15
ENDBRANCH   1  13
TORSDOF 5
ENDMDL
MODEL 2
REMARK VINA RESULT:      -0.0      9.872     11.761
REMARK  5 active torsions:
REMARK  status: ('A' for Active; 'I' for Inactive)
REMARK    1  A    between atoms: S_1  and  C_4 
REMARK    2  A    between atoms: S_1  and  N_13 
REMARK    3  A    between atoms: C_7  and  N_10 
REMARK    4  A    between atoms: N_13  and  C_15 
REMARK    5  A    between atoms: C_15  and  C_16 
ROOT
HETATM    1  S   LIG     1      93.981  94.244  93.516  1.00  0.00     0.261 S 
HETATM    2  O   LIG     1      94.860  93.428  94.369  1.00  0.00    -0.200 OA
HETATM    3  O   LIG     1      93.730  95.657  93.835  1.00  0.00    -0.200 OA
ENDROOT
BRANCH   1   4
HETATM    4  C   LIG     1      92.400  93.421  93.350  1.00  0.00     0.103 A 
HETATM    5  C   LIG     1      92.339  92.116  92.823  1.00  0.00     0.014 A 
HETATM    6  C   LIG     1      91.089  91.483  92.675  1.00  0.00     0.017 A 
HETATM    7  C   LIG     1      89.908  92.153  93.056  1.00  0.00     0.050 A 
HETATM    8  C   LIG     1      89.977  93.457  93.589  1.00  0.00     0.017 A 
HETATM    9  C   LIG     1      91.224  94.093  93.739  1.00  0.00     0.014 A 
BRANCH   7  10
HETATM   10  N   LIG     1      88.673  91.527  92.905  1.00  0.00    -0.398 N 
HETATM   11  H   LIG     1      88.598  90.597  92.515  1.00  0.00     0.156 HD
HETATM   12  H   LIG     1      87.831  91.922  93.299  1.00  0.00     0.156 HD
ENDBRANCH   7  10
ENDBRANCH   1   4
BRANCH   1  13
HETATM   13  N   LIG     1      94.600  94.186  91.907  1.00  0.00    -0.297 N 
HETATM   14  H   LIG     1      95.531  93.773  91.854  1.00  0.00     0.173 HD
BRANCH  13  15
HETATM   15  C   LIG     1      94.403  95.322  91.002  1.00  0.00     0.138 C 
BRANCH  15  16
HETATM   16  C   LIG     1      93.207  95.087  90.065  1.00  0.00     0.138 C 
HETATM   17  C   LIG     1      91.894  95.708  90.590  1.00  0.00     0.032 C 
HETATM   18  C   LIG     1      90.717  95.345  89.678  1.00  0.00     0.005 C 
HETATM   19  C   LIG     1      90.661  93.826  89.486  1.00  0.00     0.032 C 
HETATM   20  C   LIG     1      92.026  93.298  89.018  1.00  0.00     0.142 C 
HETATM   21  O   LIG     1      93.036  93.677  89.948  1.00  0.00    -0.355 OA
ENDBRANCH  15  16
ENDBRANCH  13  15
ENDBRANCH   1  13
TORSDOF 5
ENDMDL
MODEL 3
REMARK VINA RESULT:      -0.0      8.703     10.819
REMARK  5 active torsions:
REMARK  status: ('A' for Active; 'I' for Inactive)
REMARK    1  A    between atoms: S_1  and  C_4 
REMARK    2  A    between atoms: S_1  and  N_13 
REMARK    3  A    between atoms: C_7  and  N_10 
REMARK    4  A    between atoms: N_13  and  C_15 
REMARK    5  A    between atoms: C_15  and  C_16 
ROOT
HETATM    1  S   LIG     1      93.217  92.355  87.052  1.00  0.00     0.261 S 
HETATM    2  O   LIG     1      92.303  93.259  86.335  1.00  0.00    -0.200 OA
HETATM    3  O   LIG     1      94.483  91.928  86.438  1.00  0.00    -0.200 OA
ENDROOT
BRANCH   1   4
HETATM    4  C   LIG     1      92.318  90.891  87.552  1.00  0.00     0.103 A 
HETATM    5  C   LIG     1      91.178  91.011  88.372  1.00  0.00     0.014 A 
HETATM    6  C   LIG     1      90.489  89.852  88.778  1.00  0.00     0.017 A 
HETATM    7  C   LIG     1      90.937  88.580  88.364  1.00  0.00     0.050 A 
HETATM    8  C   LIG     1      92.075  88.468  87.539  1.00  0.00     0.017 A 
HETATM    9  C   LIG     1      92.767  89.623  87.129  1.00  0.00     0.014 A 
BRANCH   7  10
HETATM   10  N   LIG     1      90.256  87.435  88.772  1.00  0.00    -0.398 N 
HETATM   11  H   LIG     1      90.347  87.075  89.712  1.00  0.00     0.156 HD
HETATM   12  H   LIG     1      89.550  87.007  88.189  1.00  0.00     0.156 HD
ENDBRANCH   7  10
ENDBRANCH   1   4
BRANCH   1  13
HETATM   13  N   LIG     1      93.605  93.087  88.566  1.00  0.00    -0.297 N 
HETATM   14  H   LIG     1      93.303  94.059  88.626  1.00  0.00     0.173 HD
BRANCH  13  15
HETATM   15  C   LIG     1      94.903  92.829  89.196  1.00  0.00     0.138 C 
BRANCH  15  16
HETATM   16  C   LIG     1      94.793  91.733  90.270  1.00  0.00     0.138 C 
HETATM   17  C   LIG     1      95.146  90.327  89.740  1.00  0.00     0.032 C 
HETATM   18  C   LIG     1      94.909  89.263  90.816  1.00  0.00     0.005 C 
HETATM   19  C   LIG     1      93.481  89.388  91.361  1.00  0.00     0.032 C 
HETATM   20  C   LIG     1      93.208  90.832  91.810  1.00  0.00     0.142 C 
HETATM   21  O   LIG     1      93.442  91.727  90.727  1.00  0.00    -0.355 OA
ENDBRANCH  15  16
ENDBRANCH  13  15
ENDBRANCH   1  13
TORSDOF 5
ENDMDL
MODEL 4
REMARK VINA RESULT:      -0.0      9.343     11.025
REMARK  5 active torsions:
REMARK  status: ('A' for Active; 'I' for Inactive)
REMARK    1  A    between atoms: S_1  and  C_4 
REMARK    2  A    between atoms: S_1  and  N_13 
REMARK    3  A    between atoms: C_7  and  N_10 
REMARK    4  A    between atoms: N_13  and  C_15 
REMARK    5  A    between atoms: C_15  and  C_16 
ROOT
HETATM    1  S   LIG     1      85.031  91.806  90.852  1.00  0.00     0.261 S 
HETATM    2  O   LIG     1      85.290  91.129  92.133  1.00  0.00    -0.200 OA
HETATM    3  O   LIG     1      84.490  93.173  90.825  1.00  0.00    -0.200 OA
ENDROOT
BRANCH   1   4
HETATM    4  C   LIG     1      83.976  90.769  89.845  1.00  0.00     0.103 A 
HETATM    5  C   LIG     1      84.387  89.463  89.510  1.00  0.00     0.014 A 
HETATM    6  C   LIG     1      83.561  88.660  88.699  1.00  0.00     0.017 A 
HETATM    7  C   LIG     1      82.330  89.162  88.229  1.00  0.00     0.050 A 
HETATM    8  C   LIG     1      81.922  90.467  88.572  1.00  0.00     0.017 A 
HETATM    9  C   LIG     1      82.744  91.273  89.384  1.00  0.00     0.014 A 
BRANCH   7  10
HETATM   10  N   LIG     1      81.517  88.367  87.423  1.00  0.00    -0.398 N 
HETATM   11  H   LIG     1      80.704  87.897  87.796  1.00  0.00     0.156 HD
HETATM   12  H   LIG     1      81.633  88.344  86.420  1.00  0.00     0.156 HD
ENDBRANCH   7  10
ENDBRANCH   1   4
BRANCH   1  13
HETATM   13  N   LIG     1      86.504  91.821  89.954  1.00  0.00    -0.297 N 
HETATM   14  H   LIG     1      87.311  91.543  90.510  1.00  0.00     0.173 HD
BRANCH  13  15
HETATM   15  C   LIG     1      86.779  92.911  89.013  1.00  0.00     0.138 C 
BRANCH  15  16
HETATM   16  C   LIG     1      86.434  92.502  87.571  1.00  0.00     0.138 C 
HETATM   17  C   LIG     1      85.017  92.937  87.140  1.00  0.00     0.032 C 
HETATM   18  C   LIG     1      84.685  92.405  85.742  1.00  0.00     0.005 C 
HETATM   19  C   LIG     1      84.918  90.891  85.696  1.00  0.00     0.032 C 
HETATM   20  C   LIG     1      86.333  90.556  86.195  1.00  0.00     0.142 C 
HETATM   21  O   LIG     1      86.520  91.081  87.505  1.00  0.00    -0.355 OA
ENDBRANCH  15  16
ENDBRANCH  13  15
ENDBRANCH   1  13
TORSDOF 5
ENDMDL
MODEL 5
REMARK VINA RESULT:       0.0      9.131     10.323
REMARK  5 active torsions:
REMARK  status: ('A' for Active; 'I' for Inactive)
REMARK    1  A    between atoms: S_1  and  C_4 
REMARK    2  A    between atoms: S_1  and  N_13 
REMARK    3  A    between atoms: C_7  and  N_10 
REMARK    4  A    between atoms: N_13  and  C_15 
REMARK    5  A    between atoms: C_15  and  C_16 
ROOT
HETATM    1  S   LIG     1      93.579  93.394  90.969  1.00  0.00     0.261 S 
HETATM    2  O   LIG     1      94.511  94.344  91.597  1.00  0.00    -0.200 OA
HETATM    3  O   LIG     1      92.159  93.376  91.351  1.00  0.00    -0.200 OA
ENDROOT
BRANCH   1   4
HETATM    4  C   LIG     1      94.226  91.735  91.150  1.00  0.00     0.103 A 
HETATM    5  C   LIG     1      95.499  91.417  90.637  1.00  0.00     0.014 A 
HETATM    6  C   LIG     1      95.992  90.103  90.764  1.00  0.00     0.017 A 
HETATM    7  C   LIG     1      95.215  89.116  91.404  1.00  0.00     0.050 A 
HETATM    8  C   LIG     1      93.945  89.442  91.921  1.00  0.00     0.017 A 
HETATM    9  C   LIG     1      93.448  90.754  91.797  1.00  0.00     0.014 A 
BRANCH   7  10
HETATM   10  N   LIG     1      95.703  87.816  91.524  1.00  0.00    -0.398 N 
HETATM   11  H   LIG     1      96.390  87.575  92.226  1.00  0.00     0.156 HD
HETATM   12  H   LIG     1      95.293  87.050  91.009  1.00  0.00     0.156 HD
ENDBRANCH   7  10
ENDBRANCH   1   4
BRANCH   1  13
HETATM   13  N   LIG     1      93.646  93.634  89.262  1.00  0.00    -0.297 N 
HETATM   14  H   LIG     1      94.152  94.479  89.000  1.00  0.00     0.173 HD
BRANCH  13  15
HETATM   15  C   LIG     1      92.465  93.369  88.436  1.00  0.00     0.138 C 
BRANCH  15  16
HETATM   16  C   LIG     1      92.541  91.978  87.785  1.00  0.00     0.138 C 
HETATM   17  C   LIG     1      91.806  90.888  88.595  1.00  0.00     0.032 C 
HETATM   18  C   LIG     1      92.012  89.508  87.964  1.00  0.00     0.005 C 
HETATM   19  C   LIG     1      93.510  89.244  87.773  1.00  0.00     0.032 C 
HETATM   20  C   LIG     1      94.161  90.407  87.008  1.00  0.00     0.142 C 
HETATM   21  O   LIG     1      93.922  91.631  87.695  1.00  0.00    -0.355 OA
ENDBRANCH  15  16
ENDBRANCH  13  15
ENDBRANCH   1  13
TORSDOF 5
ENDMDL
MODEL 6
REMARK VINA RESULT:       0.0     13.202     14.823
REMARK  5 active torsions:
REMARK  status: ('A' for Active; 'I' for Inactive)
REMARK    1  A    between atoms: S_1  and  C_4 
REMARK    2  A    between atoms: S_1  and  N_13 
REMARK    3  A    between atoms: C_7  and  N_10 
REMARK    4  A    between atoms: N_13  and  C_15 
REMARK    5  A    between atoms: C_15  and  C_16 
ROOT
HETATM    1  S   LIG     1      82.314  97.812  91.407  1.00  0.00     0.261 S 
HETATM    2  O   LIG     1      81.632  99.088  91.133  1.00  0.00    -0.200 OA
HETATM    3  O   LIG     1      81.937  96.998  92.572  1.00  0.00    -0.200 OA
ENDROOT
BRANCH   1   4
HETATM    4  C   LIG     1      84.079  98.096  91.473  1.00  0.00     0.103 A 
HETATM    5  C   LIG     1      84.744  98.653  90.362  1.00  0.00     0.014 A 
HETATM    6  C   LIG     1      86.137  98.853  90.413  1.00  0.00     0.017 A 
HETATM    7  C   LIG     1      86.860  98.500  91.572  1.00  0.00     0.050 A 
HETATM    8  C   LIG     1      86.188  97.948  92.682  1.00  0.00     0.017 A 
HETATM    9  C   LIG     1      84.795  97.747  92.635  1.00  0.00     0.014 A 
BRANCH   7  10
HETATM   10  N   LIG     1      88.239  98.694  91.618  1.00  0.00    -0.398 N 
HETATM   11  H   LIG     1      88.686  99.099  92.429  1.00  0.00     0.156 HD
HETATM   12  H   LIG     1      88.847  98.317  90.906  1.00  0.00     0.156 HD
ENDBRANCH   7  10
ENDBRANCH   1   4
BRANCH   1  13
HETATM   13  N   LIG     1      82.150  96.813  90.010  1.00  0.00    -0.297 N 
HETATM   14  H   LIG     1      81.480  97.180  89.335  1.00  0.00     0.173 HD
BRANCH  13  15
HETATM   15  C   LIG     1      82.111  95.354  90.151  1.00  0.00     0.138 C 
BRANCH  15  16
HETATM   16  C   LIG     1      83.490  94.731  89.876  1.00  0.00     0.138 C 
HETATM   17  C   LIG     1      84.317  94.498  91.158  1.00  0.00     0.032 C 
HETATM   18  C   LIG     1      85.720  93.985  90.816  1.00  0.00     0.005 C 
HETATM   19  C   LIG     1      86.382  94.928  89.805  1.00  0.00     0.032 C 
HETATM   20  C   LIG     1      85.461  95.141  88.594  1.00  0.00     0.142 C 
HETATM   21  O   LIG     1      84.197  95.634  89.029  1.00  0.00    -0.355 OA
ENDBRANCH  15  16
ENDBRANCH  13  15
ENDBRANCH   1  13
TORSDOF 5
ENDMDL
MODEL 7
REMARK VINA RESULT:       0.0      4.212      6.419
REMARK  5 active torsions:
REMARK  status: ('A' for Active; 'I' for Inactive)
REMARK    1  A    between atoms: S_1  and  C_4 
REMARK    2  A    between atoms: S_1  and  N_13 
REMARK    3  A    between atoms: C_7  and  N_10 
REMARK    4  A    between atoms: N_13  and  C_15 
REMARK    5  A    between atoms: C_15  and  C_16 
ROOT
HETATM    1  S   LIG     1      85.255  87.802  90.142  1.00  0.00     0.261 S 
HETATM    2  O   LIG     1      84.563  89.100  90.187  1.00  0.00    -0.200 OA
HETATM    3  O   LIG     1      85.481  87.118  88.860  1.00  0.00    -0.200 OA
ENDROOT
BRANCH   1   4
HETATM    4  C   LIG     1      84.428  86.660  91.244  1.00  0.00     0.103 A 
HETATM    5  C   LIG     1      84.294  86.974  92.611  1.00  0.00     0.014 A 
HETATM    6  C   LIG     1      83.660  86.061  93.477  1.00  0.00     0.017 A 
HETATM    7  C   LIG     1      83.162  84.841  92.975  1.00  0.00     0.050 A 
HETATM    8  C   LIG     1      83.294  84.535  91.605  1.00  0.00     0.017 A 
HETATM    9  C   LIG     1      83.926  85.445  90.736  1.00  0.00     0.014 A 
BRANCH   7  10
HETATM   10  N   LIG     1      82.540  83.937  93.833  1.00  0.00    -0.398 N 
HETATM   11  H   LIG     1      82.525  84.086  94.833  1.00  0.00     0.156 HD
HETATM   12  H   LIG     1      81.973  83.180  93.479  1.00  0.00     0.156 HD
ENDBRANCH   7  10
ENDBRANCH   1   4
BRANCH   1  13
HETATM   13  N   LIG     1      86.795  87.996  90.897  1.00  0.00    -0.297 N 
HETATM   14  H   LIG     1      87.032  88.972  91.068  1.00  0.00     0.173 HD
BRANCH  13  15
HETATM   15  C   LIG     1      87.931  87.174  90.470  1.00  0.00     0.138 C 
BRANCH  15  16
HETATM   16  C   LIG     1      88.132  85.971  91.406  1.00  0.00     0.138 C 
HETATM   17  C   LIG     1      87.442  84.686  90.898  1.00  0.00     0.032 C 
HETATM   18  C   LIG     1      87.577  83.555  91.923  1.00  0.00     0.005 C 
HETATM   19  C   LIG     1      87.081  84.034  93.291  1.00  0.00     0.032 C 
HETATM   20  C   LIG     1      87.782  85.344  93.682  1.00  0.00     0.142 C 
HETATM   21  O   LIG     1      87.574  86.325  92.670  1.00  0.00    -0.355 OA
ENDBRANCH  15  16
ENDBRANCH  13  15
ENDBRANCH   1  13
TORSDOF 5
ENDMDL
MODEL 8
REMARK VINA RESULT:       0.0      8.787     10.948
REMARK  5 active torsions:
REMARK  status: ('A' for Active; 'I' for Inactive)
REMARK    1  A    between atoms: S_1  and  C_4 
REMARK    2  A    between atoms: S_1  and  N_13 
REMARK    3  A    between atoms: C_7  and  N_10 
REMARK    4  A    between atoms: N_13  and  C_15 
REMARK    5  A    between atoms: C_15  and  C_16 
ROOT
HETATM    1  S   LIG     1      92.528  94.066  90.046  1.00  0.00     0.261 S 
HETATM    2  O   LIG     1      91.413  95.021  90.152  1.00  0.00    -0.200 OA
HETATM    3  O   LIG     1      93.830  94.493  89.511  1.00  0.00    -0.200 OA
ENDROOT
BRANCH   1   4
HETATM    4  C   LIG     1      91.987  92.634  89.119  1.00  0.00     0.103 A 
HETATM    5  C   LIG     1      90.883  91.883  89.567  1.00  0.00     0.014 A 
HETATM    6  C   LIG     1      90.476  90.745  88.844  1.00  0.00     0.017 A 
HETATM    7  C   LIG     1      91.169  90.364  87.677  1.00  0.00     0.050 A 
HETATM    8  C   LIG     1      92.269  91.123  87.230  1.00  0.00     0.017 A 
HETATM    9  C   LIG     1      92.680  92.263  87.950  1.00  0.00     0.014 A 
BRANCH   7  10
HETATM   10  N   LIG     1      90.768  89.235  86.966  1.00  0.00    -0.398 N 
HETATM   11  H   LIG     1      90.445  88.402  87.439  1.00  0.00     0.156 HD
HETATM   12  H   LIG     1      90.658  89.257  85.962  1.00  0.00     0.156 HD
ENDBRANCH   7  10
ENDBRANCH   1   4
BRANCH   1  13
HETATM   13  N   LIG     1      92.812  93.407  91.615  1.00  0.00    -0.297 N 
HETATM   14  H   LIG     1      92.311  93.904  92.351  1.00  0.00     0.173 HD
BRANCH  13  15
HETATM   15  C   LIG     1      94.160  92.979  92.000  1.00  0.00     0.138 C 
BRANCH  15  16
HETATM   16  C   LIG     1      94.332  91.460  91.828  1.00  0.00     0.138 C 
HETATM   17  C   LIG     1      94.957  91.070  90.472  1.00  0.00     0.032 C 
HETATM   18  C   LIG     1      94.998  89.547  90.308  1.00  0.00     0.005 C 
HETATM   19  C   LIG     1      93.601  88.964  90.546  1.00  0.00     0.032 C 
HETATM   20  C   LIG     1      93.043  89.453  91.892  1.00  0.00     0.142 C 
HETATM   21  O   LIG     1      93.034  90.877  91.922  1.00  0.00    -0.355 OA
ENDBRANCH  15  16
ENDBRANCH  13  15
ENDBRANCH   1  13
TORSDOF 5
ENDMDL
MODEL 9
REMARK VINA RESULT:       0.0      9.847     11.952
REMARK  5 active torsions:
REMARK  status: ('A' for Active; 'I' for Inactive)
REMARK    1  A    between atoms: S_1  and  C_4 
REMARK    2  A    between atoms: S_1  and  N_13 
REMARK    3  A    between atoms: C_7  and  N_10 
REMARK    4  A    between atoms: N_13  and  C_15 
REMARK    5  A    between atoms: C_15  and  C_16 
ROOT
HETATM    1  S   LIG     1      85.706  91.603  94.104  1.00  0.00     0.261 S 
HETATM    2  O   LIG     1      87.042  91.838  93.534  1.00  0.00    -0.200 OA
HETATM    3  O   LIG     1      85.272  90.243  94.458  1.00  0.00    -0.200 OA
ENDROOT
BRANCH   1   4
HETATM    4  C   LIG     1      84.474  92.317  93.019  1.00  0.00     0.103 A 
HETATM    5  C   LIG     1      84.521  93.690  92.710  1.00  0.00     0.014 A 
HETATM    6  C   LIG     1      83.536  94.249  91.872  1.00  0.00     0.017 A 
HETATM    7  C   LIG     1      82.511  93.436  91.346  1.00  0.00     0.050 A 
HETATM    8  C   LIG     1      82.473  92.061  91.655  1.00  0.00     0.017 A 
HETATM    9  C   LIG     1      83.457  91.497  92.491  1.00  0.00     0.014 A 
BRANCH   7  10
HETATM   10  N   LIG     1      81.535  93.992  90.522  1.00  0.00    -0.398 N 
HETATM   11  H   LIG     1      80.562  94.010  90.797  1.00  0.00     0.156 HD
HETATM   12  H   LIG     1      81.781  94.512  89.692  1.00  0.00     0.156 HD
ENDBRANCH   7  10
ENDBRANCH   1   4
BRANCH   1  13
HETATM   13  N   LIG     1      85.557  92.572  95.523  1.00  0.00    -0.297 N 
HETATM   14  H   LIG     1      86.443  92.980  95.820  1.00  0.00     0.173 HD
BRANCH  13  15
HETATM   15  C   LIG     1      84.707  92.127  96.631  1.00  0.00     0.138 C 
BRANCH  15  16
HETATM   16  C   LIG     1      83.325  92.799  96.578  1.00  0.00     0.138 C 
HETATM   17  C   LIG     1      82.261  91.942  95.859  1.00  0.00     0.032 C 
HETATM   18  C   LIG     1      80.939  92.707  95.734  1.00  0.00     0.005 C 
HETATM   19  C   LIG     1      81.190  94.071  95.083  1.00  0.00     0.032 C 
HETATM   20  C   LIG     1      82.300  94.822  95.834  1.00  0.00     0.142 C 
HETATM   21  O   LIG     1      83.482  94.027  95.871  1.00  0.00    -0.355 OA
ENDBRANCH  15  16
ENDBRANCH  13  15
ENDBRANCH   1  13
TORSDOF 5
ENDMDL
