MODEL 1
REMARK VINA RESULT:      -0.0      0.000      0.000
REMARK  9 active torsions:
REMARK  status: ('A' for Active; 'I' for Inactive)
REMARK    1  A    between atoms: C_2  and  C_7 
REMARK    2  A    between atoms: C_3  and  O_13 
REMARK    3  A    between atoms: C_4  and  C_15 
REMARK    4  A    between atoms: C_7  and  O_8 
REMARK    5  A    between atoms: C_7  and  C_10 
REMARK    6  A    between atoms: C_10  and  O_11 
REMARK    7  A    between atoms: C_15  and  O_16 
REMARK    8  A    between atoms: C_15  and  C_18 
REMARK    9  A    between atoms: C_18  and  O_19 
ROOT
HETATM    1  O   LIG     1      88.386  86.166  86.739  1.00  0.00    -0.325 OA
HETATM    2  C   LIG     1      88.593  84.840  87.211  1.00  0.00     0.176 C 
HETATM    3  C   LIG     1      87.744  84.623  88.484  1.00  0.00     0.170 C 
HETATM    4  C   LIG     1      88.000  85.749  89.519  1.00  0.00     0.176 C 
HETATM    5  O   LIG     1      87.845  86.990  88.830  1.00  0.00    -0.325 OA
HETATM    6  C   LIG     1      88.656  87.133  87.703  1.00  0.00     0.294 C 
ENDROOT
BRANCH   2   7
HETATM    7  C   LIG     1      88.309  83.849  86.057  1.00  0.00     0.170 C 
BRANCH   7   8
HETATM    8  O   LIG     1      88.799  82.561  86.375  1.00  0.00    -0.380 OA
HETATM    9  H   LIG     1      88.965  82.106  85.562  1.00  0.00     0.211 HD
ENDBRANCH   7   8
BRANCH   7  10
HETATM   10  C   LIG     1      86.814  83.748  85.711  1.00  0.00     0.169 C 
BRANCH  10  11
HETATM   11  O   LIG     1      86.379  84.940  85.088  1.00  0.00    -0.380 OA
HETATM   12  H   LIG     1      86.416  84.820  84.151  1.00  0.00     0.211 HD
ENDBRANCH  10  11
ENDBRANCH   7  10
ENDBRANCH   2   7
BRANCH   3  13
HETATM   13  O   LIG     1      87.992  83.341  89.029  1.00  0.00    -0.380 OA
HETATM   14  H   LIG     1      88.391  83.449  89.879  1.00  0.00     0.211 HD
ENDBRANCH   3  13
BRANCH   4  15
HETATM   15  C   LIG     1      89.351  85.699  90.292  1.00  0.00     0.170 C 
BRANCH  15  16
HETATM   16  O   LIG     1      89.395  84.519  91.072  1.00  0.00    -0.380 OA
HETATM   17  H   LIG     1      89.723  84.752  91.928  1.00  0.00     0.211 HD
ENDBRANCH  15  16
BRANCH  15  18
HETATM   18  C   LIG     1      89.512  86.862  91.292  1.00  0.00     0.169 C 
BRANCH  18  19
HETATM   19  O   LIG     1      88.242  87.355  91.668  1.00  0.00    -0.380 OA
HETATM   20  H   LIG     1      88.169  88.252  91.379  1.00  0.00     0.211 HD
ENDBRANCH  18  19
ENDBRANCH  15  18
ENDBRANCH   4  15
TORSDOF 9
ENDMDL
MODEL 2
REMARK VINA RESULT:      -0.0      4.421      5.198
REMARK  9 active torsions:
REMARK  status: ('A' for Active; 'I' for Inactive)
REMARK    1  A    between atoms: C_2  and  C_7 
REMARK    2  A    between atoms: C_3  and  O_13 
REMARK    3  A    between atoms: C_4  and  C_15 
REMARK    4  A    between atoms: C_7  and  O_8 
REMARK    5  A    between atoms: C_7  and  C_10 
REMARK    6  A    between atoms: C_10  and  O_11 
REMARK    7  A    between atoms: C_15  and  O_16 
REMARK    8  A    between atoms: C_15  and  C_18 
REMARK    9  A    between atoms: C_18  and  O_19 
ROOT
HETATM    1  O   LIG     1      85.752  87.119  84.072  1.00  0.00    -0.325 OA
HETATM    2  C   LIG     1      85.473  86.314  85.212  1.00  0.00     0.176 C 
HETATM    3  C   LIG     1      84.111  86.741  85.805  1.00  0.00     0.170 C 
HETATM    4  C   LIG     1      84.066  88.274  86.039  1.00  0.00     0.176 C 
HETATM    5  O   LIG     1      84.475  88.894  84.820  1.00  0.00    -0.325 OA
HETATM    6  C   LIG     1      85.723  88.482  84.350  1.00  0.00     0.294 C 
ENDROOT
BRANCH   2   7
HETATM    7  C   LIG     1      85.573  84.823  84.808  1.00  0.00     0.170 C 
BRANCH   7   8
HETATM    8  O   LIG     1      85.616  83.998  85.956  1.00  0.00    -0.380 OA
HETATM    9  H   LIG     1      86.187  84.411  86.587  1.00  0.00     0.211 HD
ENDBRANCH   7   8
BRANCH   7  10
HETATM   10  C   LIG     1      84.412  84.371  83.906  1.00  0.00     0.169 C 
BRANCH  10  11
HETATM   11  O   LIG     1      84.538  84.953  82.624  1.00  0.00    -0.380 OA
HETATM   12  H   LIG     1      85.375  84.705  82.262  1.00  0.00     0.211 HD
ENDBRANCH  10  11
ENDBRANCH   7  10
ENDBRANCH   2   7
BRANCH   3  13
HETATM   13  O   LIG     1      83.841  86.019  86.991  1.00  0.00    -0.380 OA
HETATM   14  H   LIG     1      83.480  86.616  87.629  1.00  0.00     0.211 HD
ENDBRANCH   3  13
BRANCH   4  15
HETATM   15  C   LIG     1      84.877  88.823  87.250  1.00  0.00     0.170 C 
BRANCH  15  16
HETATM   16  O   LIG     1      84.342  88.290  88.447  1.00  0.00    -0.380 OA
HETATM   17  H   LIG     1      83.698  87.640  88.209  1.00  0.00     0.211 HD
ENDBRANCH  15  16
BRANCH  15  18
HETATM   18  C   LIG     1      84.772  90.355  87.396  1.00  0.00     0.169 C 
BRANCH  18  19
HETATM   19  O   LIG     1      83.586  90.818  86.783  1.00  0.00    -0.380 OA
HETATM   20  H   LIG     1      83.639  90.647  85.855  1.00  0.00     0.211 HD
ENDBRANCH  18  19
ENDBRANCH  15  18
ENDBRANCH   4  15
TORSDOF 9
ENDMDL
MODEL 3
REMARK VINA RESULT:      -0.0     11.212     12.433
REMARK  9 active torsions:
REMARK  status: ('A' for Active; 'I' for Inactive)
REMARK    1  A    between atoms: C_2  and  C_7 
REMARK    2  A    between atoms: C_3  and  O_13 
REMARK    3  A    between atoms: C_4  and  C_15 
REMARK    4  A    between atoms: C_7  and  O_8 
REMARK    5  A    between atoms: C_7  and  C_10 
REMARK    6  A    between atoms: C_10  and  O_11 
REMARK    7  A    between atoms: C_15  and  O_16 
REMARK    8  A    between atoms: C_15  and  C_18 
REMARK    9  A    between atoms: C_18  and  O_19 
ROOT
HETATM    1  O   LIG     1      86.335  98.529  89.747  1.00  0.00    -0.325 OA
HETATM    2  C   LIG     1      86.448  97.111  89.781  1.00  0.00     0.176 C 
HETATM    3  C   LIG     1      86.317  96.634  91.245  1.00  0.00     0.170 C 
HETATM    4  C   LIG     1      87.294  97.407  92.169  1.00  0.00     0.176 C 
HETATM    5  O   LIG     1      87.097  98.797  91.912  1.00  0.00    -0.325 OA
HETATM    6  C   LIG     1      87.252  99.167  90.575  1.00  0.00     0.294 C 
ENDROOT
BRANCH   2   7
HETATM    7  C   LIG     1      85.419  96.502  88.799  1.00  0.00     0.170 C 
BRANCH   7   8
HETATM    8  O   LIG     1      85.703  95.137  88.563  1.00  0.00    -0.380 OA
HETATM    9  H   LIG     1      84.880  94.690  88.430  1.00  0.00     0.211 HD
ENDBRANCH   7   8
BRANCH   7  10
HETATM   10  C   LIG     1      83.969  96.637  89.295  1.00  0.00     0.169 C 
BRANCH  10  11
HETATM   11  O   LIG     1      83.560  97.988  89.234  1.00  0.00    -0.380 OA
HETATM   12  H   LIG     1      83.986  98.464  89.931  1.00  0.00     0.211 HD
ENDBRANCH  10  11
ENDBRANCH   7  10
ENDBRANCH   2   7
BRANCH   3  13
HETATM   13  O   LIG     1      86.511  95.235  91.328  1.00  0.00    -0.380 OA
HETATM   14  H   LIG     1      87.121  95.058  92.029  1.00  0.00     0.211 HD
ENDBRANCH   3  13
BRANCH   4  15
HETATM   15  C   LIG     1      88.800  97.024  92.076  1.00  0.00     0.170 C 
BRANCH  15  16
HETATM   16  O   LIG     1      88.962  95.677  92.479  1.00  0.00    -0.380 OA
HETATM   17  H   LIG     1      88.286  95.168  92.057  1.00  0.00     0.211 HD
ENDBRANCH  15  16
BRANCH  15  18
HETATM   18  C   LIG     1      89.688  97.851  93.029  1.00  0.00     0.169 C 
BRANCH  18  19
HETATM   19  O   LIG     1      88.916  98.336  94.108  1.00  0.00    -0.380 OA
HETATM   20  H   LIG     1      89.501  98.610  94.798  1.00  0.00     0.211 HD
ENDBRANCH  18  19
ENDBRANCH  15  18
ENDBRANCH   4  15
TORSDOF 9
ENDMDL
MODEL 4
REMARK VINA RESULT:      -0.0      5.845      8.080
REMARK  9 active torsions:
REMARK  status: ('A' for Active; 'I' for Inactive)
REMARK    1  A    between atoms: C_2  and  C_7 
REMARK    2  A    between atoms: C_3  and  O_13 
REMARK    3  A    between atoms: C_4  and  C_15 
REMARK    4  A    between atoms: C_7  and  O_8 
REMARK    5  A    between atoms: C_7  and  C_10 
REMARK    6  A    between atoms: C_10  and  O_11 
REMARK    7  A    between atoms: C_15  and  O_16 
REMARK    8  A    between atoms: C_15  and  C_18 
REMARK    9  A    between atoms: C_18  and  O_19 
ROOT
HETATM    1  O   LIG     1      92.167  88.546  85.694  1.00  0.00    -0.325 OA
HETATM    2  C   LIG     1      93.369  88.285  84.979  1.00  0.00     0.176 C 
HETATM    3  C   LIG     1      93.036  88.136  83.478  1.00  0.00     0.170 C 
HETATM    4  C   LIG     1      91.893  87.111  83.262  1.00  0.00     0.176 C 
HETATM    5  O   LIG     1      90.828  87.485  84.137  1.00  0.00    -0.325 OA
HETATM    6  C   LIG     1      91.188  87.580  85.482  1.00  0.00     0.294 C 
ENDROOT
BRANCH   2   7
HETATM    7  C   LIG     1      94.401  89.388  85.316  1.00  0.00     0.170 C 
BRANCH   7   8
HETATM    8  O   LIG     1      95.694  89.007  84.888  1.00  0.00    -0.380 OA
HETATM    9  H   LIG     1      95.670  88.086  84.679  1.00  0.00     0.211 HD
ENDBRANCH   7   8
BRANCH   7  10
HETATM   10  C   LIG     1      94.044  90.748  84.693  1.00  0.00     0.169 C 
BRANCH  10  11
HETATM   11  O   LIG     1      92.917  91.299  85.343  1.00  0.00    -0.380 OA
HETATM   12  H   LIG     1      92.276  90.615  85.465  1.00  0.00     0.211 HD
ENDBRANCH  10  11
ENDBRANCH   7  10
ENDBRANCH   2   7
BRANCH   3  13
HETATM   13  O   LIG     1      94.197  87.790  82.746  1.00  0.00    -0.380 OA
HETATM   14  H   LIG     1      94.656  88.585  82.518  1.00  0.00     0.211 HD
ENDBRANCH   3  13
BRANCH   4  15
HETATM   15  C   LIG     1      92.257  85.606  83.431  1.00  0.00     0.170 C 
BRANCH  15  16
HETATM   16  O   LIG     1      93.211  85.247  82.449  1.00  0.00    -0.380 OA
HETATM   17  H   LIG     1      93.828  85.960  82.373  1.00  0.00     0.211 HD
ENDBRANCH  15  16
BRANCH  15  18
HETATM   18  C   LIG     1      91.054  84.669  83.202  1.00  0.00     0.169 C 
BRANCH  18  19
HETATM   19  O   LIG     1      90.093  85.308  82.386  1.00  0.00    -0.380 OA
HETATM   20  H   LIG     1      90.503  85.549  81.570  1.00  0.00     0.211 HD
ENDBRANCH  18  19
ENDBRANCH  15  18
ENDBRANCH   4  15
TORSDOF 9
ENDMDL
MODEL 5
REMARK VINA RESULT:      -0.0      5.538      6.933
REMARK  9 active torsions:
REMARK  status: ('A' for Active; 'I' for Inactive)
REMARK    1  A    between atoms: C_2  and  C_7 
REMARK    2  A    between atoms: C_3  and  O_13 
REMARK    3  A    between atoms: C_4  and  C_15 
REMARK    4  A    between atoms: C_7  and  O_8 
REMARK    5  A    between atoms: C_7  and  C_10 
REMARK    6  A    between atoms: C_10  and  O_11 
REMARK    7  A    between atoms: C_15  and  O_16 
REMARK    8  A    between atoms: C_15  and  C_18 
REMARK    9  A    between atoms: C_18  and  O_19 
ROOT
HETATM    1  O   LIG     1      82.636  84.100  87.900  1.00  0.00    -0.325 OA
HETATM    2  C   LIG     1      82.832  84.814  89.115  1.00  0.00     0.176 C 
HETATM    3  C   LIG     1      82.026  86.131  89.058  1.00  0.00     0.170 C 
HETATM    4  C   LIG     1      82.342  86.919  87.760  1.00  0.00     0.176 C 
HETATM    5  O   LIG     1      82.188  86.007  86.673  1.00  0.00    -0.325 OA
HETATM    6  C   LIG     1      82.961  84.849  86.772  1.00  0.00     0.294 C 
ENDROOT
BRANCH   2   7
HETATM    7  C   LIG     1      82.487  83.884  90.303  1.00  0.00     0.170 C 
BRANCH   7   8
HETATM    8  O   LIG     1      82.961  84.431  91.518  1.00  0.00    -0.380 OA
HETATM    9  H   LIG     1      82.882  85.371  91.462  1.00  0.00     0.211 HD
ENDBRANCH   7   8
BRANCH   7  10
HETATM   10  C   LIG     1      80.978  83.612  90.427  1.00  0.00     0.169 C 
BRANCH  10  11
HETATM   11  O   LIG     1      80.545  82.785  89.366  1.00  0.00    -0.380 OA
HETATM   12  H   LIG     1      79.825  83.211  88.926  1.00  0.00     0.211 HD
ENDBRANCH  10  11
ENDBRANCH   7  10
ENDBRANCH   2   7
BRANCH   3  13
HETATM   13  O   LIG     1      82.266  86.907  90.217  1.00  0.00    -0.380 OA
HETATM   14  H   LIG     1      83.029  86.562  90.656  1.00  0.00     0.211 HD
ENDBRANCH   3  13
BRANCH   4  15
HETATM   15  C   LIG     1      83.719  87.644  87.697  1.00  0.00     0.170 C 
BRANCH  15  16
HETATM   16  O   LIG     1      83.767  88.636  88.705  1.00  0.00    -0.380 OA
HETATM   17  H   LIG     1      83.288  88.310  89.452  1.00  0.00     0.211 HD
ENDBRANCH  15  16
BRANCH  15  18
HETATM   18  C   LIG     1      83.940  88.394  86.367  1.00  0.00     0.169 C 
BRANCH  18  19
HETATM   19  O   LIG     1      82.694  88.706  85.776  1.00  0.00    -0.380 OA
HETATM   20  H   LIG     1      82.694  89.621  85.540  1.00  0.00     0.211 HD
ENDBRANCH  18  19
ENDBRANCH  15  18
ENDBRANCH   4  15
TORSDOF 9
ENDMDL
MODEL 6
REMARK VINA RESULT:      -0.0      6.180      8.228
REMARK  9 active torsions:
REMARK  status: ('A' for Active; 'I' for Inactive)
REMARK    1  A    between atoms: C_2  and  C_7 
REMARK    2  A    between atoms: C_3  and  O_13 
REMARK    3  A    between atoms: C_4  and  C_15 
REMARK    4  A    between atoms: C_7  and  O_8 
REMARK    5  A    between atoms: C_7  and  C_10 
REMARK    6  A    between atoms: C_10  and  O_11 
REMARK    7  A    between atoms: C_15  and  O_16 
REMARK    8  A    between atoms: C_15  and  C_18 
REMARK    9  A    between atoms: C_18  and  O_19 
ROOT
HETATM    1  O   LIG     1      87.114  90.289  91.335  1.00  0.00    -0.325 OA
HETATM    2  C   LIG     1      87.675  91.597  91.345  1.00  0.00     0.176 C 
HETATM    3  C   LIG     1      88.442  91.803  92.670  1.00  0.00     0.170 C 
HETATM    4  C   LIG     1      87.550  91.448  93.888  1.00  0.00     0.176 C 
HETATM    5  O   LIG     1      87.004  90.152  93.640  1.00  0.00    -0.325 OA
HETATM    6  C   LIG     1      86.303  90.038  92.438  1.00  0.00     0.294 C 
ENDROOT
BRANCH   2   7
HETATM    7  C   LIG     1      88.519  91.788  90.062  1.00  0.00     0.170 C 
BRANCH   7   8
HETATM    8  O   LIG     1      88.832  93.154  89.871  1.00  0.00    -0.380 OA
HETATM    9  H   LIG     1      88.081  93.571  89.477  1.00  0.00     0.211 HD
ENDBRANCH   7   8
BRANCH   7  10
HETATM   10  C   LIG     1      89.822  90.970  90.078  1.00  0.00     0.169 C 
BRANCH  10  11
HETATM   11  O   LIG     1      89.531  89.593  89.946  1.00  0.00    -0.380 OA
HETATM   12  H   LIG     1      88.787  89.496  89.372  1.00  0.00     0.211 HD
ENDBRANCH  10  11
ENDBRANCH   7  10
ENDBRANCH   2   7
BRANCH   3  13
HETATM   13  O   LIG     1      88.942  93.124  92.751  1.00  0.00    -0.380 OA
HETATM   14  H   LIG     1      88.252  93.686  93.072  1.00  0.00     0.211 HD
ENDBRANCH   3  13
BRANCH   4  15
HETATM   15  C   LIG     1      86.434  92.467  94.261  1.00  0.00     0.170 C 
BRANCH  15  16
HETATM   16  O   LIG     1      87.032  93.693  94.638  1.00  0.00    -0.380 OA
HETATM   17  H   LIG     1      86.572  94.017  95.397  1.00  0.00     0.211 HD
ENDBRANCH  15  16
BRANCH  15  18
HETATM   18  C   LIG     1      85.600  92.023  95.480  1.00  0.00     0.169 C 
BRANCH  18  19
HETATM   19  O   LIG     1      86.350  91.130  96.279  1.00  0.00    -0.380 OA
HETATM   20  H   LIG     1      85.757  90.665  96.849  1.00  0.00     0.211 HD
ENDBRANCH  18  19
ENDBRANCH  15  18
ENDBRANCH   4  15
TORSDOF 9
ENDMDL
MODEL 7
REMARK VINA RESULT:      -0.0      5.658      8.021
REMARK  9 active torsions:
REMARK  status: ('A' for Active; 'I' for Inactive)
REMARK    1  A    between atoms: C_2  and  C_7 
REMARK    2  A    between atoms: C_3  and  O_13 
REMARK    3  A    between atoms: C_4  and  C_15 
REMARK    4  A    between atoms: C_7  and  O_8 
REMARK    5  A    between atoms: C_7  and  C_10 
REMARK    6  A    between atoms: C_10  and  O_11 
REMARK    7  A    between atoms: C_15  and  O_16 
REMARK    8  A    between atoms: C_15  and  C_18 
REMARK    9  A    between atoms: C_18  and  O_19 
ROOT
HETATM    1  O   LIG     1      94.739  88.419  89.081  1.00  0.00    -0.325 OA
HETATM    2  C   LIG     1      94.419  89.389  90.071  1.00  0.00     0.176 C 
HETATM    3  C   LIG     1      92.939  89.218  90.481  1.00  0.00     0.170 C 
HETATM    4  C   LIG     1      92.017  89.204  89.233  1.00  0.00     0.176 C 
HETATM    5  O   LIG     1      92.562  88.248  88.324  1.00  0.00    -0.325 OA
HETATM    6  C   LIG     1      93.895  88.472  87.976  1.00  0.00     0.294 C 
ENDROOT
BRANCH   2   7
HETATM    7  C   LIG     1      95.438  89.276  91.230  1.00  0.00     0.170 C 
BRANCH   7   8
HETATM    8  O   LIG     1      95.359  90.407  92.075  1.00  0.00    -0.380 OA
HETATM    9  H   LIG     1      94.750  91.017  91.686  1.00  0.00     0.211 HD
ENDBRANCH   7   8
BRANCH   7  10
HETATM   10  C   LIG     1      95.243  88.004  92.073  1.00  0.00     0.169 C 
BRANCH  10  11
HETATM   11  O   LIG     1      95.628  86.866  91.329  1.00  0.00    -0.380 OA
HETATM   12  H   LIG     1      96.121  87.152  90.574  1.00  0.00     0.211 HD
ENDBRANCH  10  11
ENDBRANCH   7  10
ENDBRANCH   2   7
BRANCH   3  13
HETATM   13  O   LIG     1      92.562  90.223  91.402  1.00  0.00    -0.380 OA
HETATM   14  H   LIG     1      92.754  91.066  91.021  1.00  0.00     0.211 HD
ENDBRANCH   3  13
BRANCH   4  15
HETATM   15  C   LIG     1      91.766  90.570  88.530  1.00  0.00     0.170 C 
BRANCH  15  16
HETATM   16  O   LIG     1      91.096  91.437  89.426  1.00  0.00    -0.380 OA
HETATM   17  H   LIG     1      90.182  91.448  89.185  1.00  0.00     0.211 HD
ENDBRANCH  15  16
BRANCH  15  18
HETATM   18  C   LIG     1      90.843  90.451  87.301  1.00  0.00     0.169 C 
BRANCH  18  19
HETATM   19  O   LIG     1      90.029  89.301  87.419  1.00  0.00    -0.380 OA
HETATM   20  H   LIG     1      89.551  89.352  88.232  1.00  0.00     0.211 HD
ENDBRANCH  18  19
ENDBRANCH  15  18
ENDBRANCH   4  15
TORSDOF 9
ENDMDL
MODEL 8
REMARK VINA RESULT:      -0.0      7.637      9.244
REMARK  9 active torsions:
REMARK  status: ('A' for Active; 'I' for Inactive)
REMARK    1  A    between atoms: C_2  and  C_7 
REMARK    2  A    between atoms: C_3  and  O_13 
REMARK    3  A    between atoms: C_4  and  C_15 
REMARK    4  A    between atoms: C_7  and  O_8 
REMARK    5  A    between atoms: C_7  and  C_10 
REMARK    6  A    between atoms: C_10  and  O_11 
REMARK    7  A    between atoms: C_15  and  O_16 
REMARK    8  A    between atoms: C_15  and  C_18 
REMARK    9  A    between atoms: C_18  and  O_19 
ROOT
HETATM    1  O   LIG     1      86.574  93.409  91.688  1.00  0.00    -0.325 OA
HETATM    2  C   LIG     1      85.303  93.110  91.120  1.00  0.00     0.176 C 
HETATM    3  C   LIG     1      85.465  91.949  90.113  1.00  0.00     0.170 C 
HETATM    4  C   LIG     1      86.599  92.251  89.098  1.00  0.00     0.176 C 
HETATM    5  O   LIG     1      87.748  92.626  89.857  1.00  0.00    -0.325 OA
HETATM    6  C   LIG     1      87.542  93.696  90.731  1.00  0.00     0.294 C 
ENDROOT
BRANCH   2   7
HETATM    7  C   LIG     1      84.293  92.851  92.263  1.00  0.00     0.170 C 
BRANCH   7   8
HETATM    8  O   LIG     1      82.968  92.863  91.769  1.00  0.00    -0.380 OA
HETATM    9  H   LIG     1      82.384  92.758  92.505  1.00  0.00     0.211 HD
ENDBRANCH   7   8
BRANCH   7  10
HETATM   10  C   LIG     1      84.547  91.520  92.992  1.00  0.00     0.169 C 
BRANCH  10  11
HETATM   11  O   LIG     1      85.731  91.605  93.759  1.00  0.00    -0.380 OA
HETATM   12  H   LIG     1      86.432  91.899  93.198  1.00  0.00     0.211 HD
ENDBRANCH  10  11
ENDBRANCH   7  10
ENDBRANCH   2   7
BRANCH   3  13
HETATM   13  O   LIG     1      84.236  91.683  89.465  1.00  0.00    -0.380 OA
HETATM   14  H   LIG     1      83.539  92.072  89.972  1.00  0.00     0.211 HD
ENDBRANCH   3  13
BRANCH   4  15
HETATM   15  C   LIG     1      86.289  93.299  87.990  1.00  0.00     0.170 C 
BRANCH  15  16
HETATM   16  O   LIG     1      85.237  92.816  87.176  1.00  0.00    -0.380 OA
HETATM   17  H   LIG     1      85.624  92.426  86.407  1.00  0.00     0.211 HD
ENDBRANCH  15  16
BRANCH  15  18
HETATM   18  C   LIG     1      87.477  93.531  87.035  1.00  0.00     0.169 C 
BRANCH  18  19
HETATM   19  O   LIG     1      88.325  92.400  87.036  1.00  0.00    -0.380 OA
HETATM   20  H   LIG     1      88.887  92.444  86.277  1.00  0.00     0.211 HD
ENDBRANCH  18  19
ENDBRANCH  15  18
ENDBRANCH   4  15
TORSDOF 9
ENDMDL
MODEL 9
REMARK VINA RESULT:      -0.0     10.378     12.621
REMARK  9 active torsions:
REMARK  status: ('A' for Active; 'I' for Inactive)
REMARK    1  A    between atoms: C_2  and  C_7 
REMARK    2  A    between atoms: C_3  and  O_13 
REMARK    3  A    between atoms: C_4  and  C_15 
REMARK    4  A    between atoms: C_7  and  O_8 
REMARK    5  A    between atoms: C_7  and  C_10 
REMARK    6  A    between atoms: C_10  and  O_11 
REMARK    7  A    between atoms: C_15  and  O_16 
REMARK    8  A    between atoms: C_15  and  C_18 
REMARK    9  A    between atoms: C_18  and  O_19 
ROOT
HETATM    1  O   LIG     1      96.829  92.857  90.251  1.00  0.00    -0.325 OA
HETATM    2  C   LIG     1      96.988  93.918  89.316  1.00  0.00     0.176 C 
HETATM    3  C   LIG     1      95.882  94.969  89.560  1.00  0.00     0.170 C 
HETATM    4  C   LIG     1      94.481  94.303  89.586  1.00  0.00     0.176 C 
HETATM    5  O   LIG     1      94.558  93.208  90.498  1.00  0.00    -0.325 OA
HETATM    6  C   LIG     1      95.563  92.282  90.210  1.00  0.00     0.294 C 
ENDROOT
BRANCH   2   7
HETATM    7  C   LIG     1      98.436  94.456  89.412  1.00  0.00     0.170 C 
BRANCH   7   8
HETATM    8  O   LIG     1      98.734  95.282  88.303  1.00  0.00    -0.380 OA
HETATM    9  H   LIG     1      99.302  95.976  88.605  1.00  0.00     0.211 HD
ENDBRANCH   7   8
BRANCH   7  10
HETATM   10  C   LIG     1      98.696  95.240  90.709  1.00  0.00     0.169 C 
BRANCH  10  11
HETATM   11  O   LIG     1      98.720  94.358  91.813  1.00  0.00    -0.380 OA
HETATM   12  H   LIG     1      99.492  94.539  92.327  1.00  0.00     0.211 HD
ENDBRANCH  10  11
ENDBRANCH   7  10
ENDBRANCH   2   7
BRANCH   3  13
HETATM   13  O   LIG     1      95.957  95.998  88.591  1.00  0.00    -0.380 OA
HETATM   14  H   LIG     1      96.826  96.370  88.616  1.00  0.00     0.211 HD
ENDBRANCH   3  13
BRANCH   4  15
HETATM   15  C   LIG     1      93.891  93.855  88.216  1.00  0.00     0.170 C 
BRANCH  15  16
HETATM   16  O   LIG     1      93.699  94.994  87.399  1.00  0.00    -0.380 OA
HETATM   17  H   LIG     1      92.824  95.316  87.555  1.00  0.00     0.211 HD
ENDBRANCH  15  16
BRANCH  15  18
HETATM   18  C   LIG     1      92.501  93.201  88.348  1.00  0.00     0.169 C 
BRANCH  18  19
HETATM   19  O   LIG     1      91.870  93.643  89.534  1.00  0.00    -0.380 OA
HETATM   20  H   LIG     1      92.313  93.255  90.273  1.00  0.00     0.211 HD
ENDBRANCH  18  19
ENDBRANCH  15  18
ENDBRANCH   4  15
TORSDOF 9
ENDMDL
