MODEL 1
REMARK VINA RESULT:      -0.0      0.000      0.000
REMARK  6 active torsions:
REMARK  status: ('A' for Active; 'I' for Inactive)
REMARK    1  A    between atoms: C_3  and  O_19 
REMARK    2  A    between atoms: C_4  and  O_17 
REMARK    3  A    between atoms: C_5  and  O_15 
REMARK    4  A    between atoms: C_6  and  O_7 
REMARK    5  A    between atoms: O_7  and  C_8 
REMARK    6  A    between atoms: C_8  and  C_9 
ROOT
HETATM    1  O   LIG     1      89.704  90.719  90.940  1.00  0.00    -0.326 OA
HETATM    2  C   LIG     1      90.116  91.238  89.678  1.00  0.00     0.177 C 
HETATM    3  C   LIG     1      89.864  90.188  88.582  1.00  0.00     0.170 C 
HETATM    4  C   LIG     1      90.567  88.859  88.921  1.00  0.00     0.172 C 
HETATM    5  C   LIG     1      90.166  88.402  90.340  1.00  0.00     0.197 C 
HETATM    6  C   LIG     1      90.401  89.570  91.337  1.00  0.00     0.266 C 
ENDROOT
BRANCH   6   7
HETATM    7  O   LIG     1      90.162  89.154  92.648  1.00  0.00    -0.324 OA
BRANCH   7   8
HETATM    8  C   LIG     1      89.174  89.880  93.371  1.00  0.00     0.172 C 
BRANCH   8   9
HETATM    9  C   LIG     1      87.868  89.115  93.470  1.00  0.00     0.007 A 
HETATM   10  C   LIG     1      86.659  89.711  93.052  1.00  0.00    -0.002 A 
HETATM   11  C   LIG     1      85.450  88.993  93.130  1.00  0.00    -0.000 A 
HETATM   12  C   LIG     1      85.445  87.674  93.621  1.00  0.00    -0.000 A 
HETATM   13  C   LIG     1      86.649  87.071  94.032  1.00  0.00    -0.000 A 
HETATM   14  C   LIG     1      87.859  87.788  93.953  1.00  0.00    -0.002 A 
ENDBRANCH   8   9
ENDBRANCH   7   8
ENDBRANCH   6   7
BRANCH   5  15
HETATM   15  O   LIG     1      88.824  87.956  90.329  1.00  0.00    -0.378 OA
HETATM   16  H   LIG     1      88.823  87.023  90.476  1.00  0.00     0.211 HD
ENDBRANCH   5  15
BRANCH   4  17
HETATM   17  O   LIG     1      91.977  88.998  88.854  1.00  0.00    -0.380 OA
HETATM   18  H   LIG     1      92.264  89.526  89.584  1.00  0.00     0.211 HD
ENDBRANCH   4  17
BRANCH   3  19
HETATM   19  O   LIG     1      90.266  90.672  87.315  1.00  0.00    -0.380 OA
HETATM   20  H   LIG     1      91.162  90.413  87.165  1.00  0.00     0.211 HD
ENDBRANCH   3  19
TORSDOF 6
ENDMDL
MODEL 2
REMARK VINA RESULT:      -0.0      5.064      7.086
REMARK  6 active torsions:
REMARK  status: ('A' for Active; 'I' for Inactive)
REMARK    1  A    between atoms: C_3  and  O_19 
REMARK    2  A    between atoms: C_4  and  O_17 
REMARK    3  A    between atoms: C_5  and  O_15 
REMARK    4  A    between atoms: C_6  and  O_7 
REMARK    5  A    between atoms: O_7  and  C_8 
REMARK    6  A    between atoms: C_8  and  C_9 
ROOT
HETATM    1  O   LIG     1      91.980  93.291  93.335  1.00  0.00    -0.326 OA
HETATM    2  C   LIG     1      91.872  94.712  93.353  1.00  0.00     0.177 C 
HETATM    3  C   LIG     1      93.246  95.337  93.053  1.00  0.00     0.170 C 
HETATM    4  C   LIG     1      94.312  94.823  94.040  1.00  0.00     0.172 C 
HETATM    5  C   LIG     1      94.308  93.280  94.056  1.00  0.00     0.197 C 
HETATM    6  C   LIG     1      92.859  92.776  94.298  1.00  0.00     0.266 C 
ENDROOT
BRANCH   6   7
HETATM    7  O   LIG     1      92.837  91.387  94.438  1.00  0.00    -0.324 OA
BRANCH   7   8
HETATM    8  C   LIG     1      92.012  90.672  93.525  1.00  0.00     0.172 C 
BRANCH   8   9
HETATM    9  C   LIG     1      92.823  90.001  92.433  1.00  0.00     0.007 A 
HETATM   10  C   LIG     1      92.520  90.234  91.075  1.00  0.00    -0.002 A 
HETATM   11  C   LIG     1      93.285  89.622  90.063  1.00  0.00    -0.000 A 
HETATM   12  C   LIG     1      94.360  88.780  90.404  1.00  0.00    -0.000 A 
HETATM   13  C   LIG     1      94.672  88.551  91.758  1.00  0.00    -0.000 A 
HETATM   14  C   LIG     1      93.908  89.163  92.771  1.00  0.00    -0.002 A 
ENDBRANCH   8   9
ENDBRANCH   7   8
ENDBRANCH   6   7
BRANCH   5  15
HETATM   15  O   LIG     1      94.860  92.795  92.848  1.00  0.00    -0.378 OA
HETATM   16  H   LIG     1      95.544  92.179  93.063  1.00  0.00     0.211 HD
ENDBRANCH   5  15
BRANCH   4  17
HETATM   17  O   LIG     1      94.068  95.307  95.350  1.00  0.00    -0.380 OA
HETATM   18  H   LIG     1      94.746  94.983  95.924  1.00  0.00     0.211 HD
ENDBRANCH   4  17
BRANCH   3  19
HETATM   19  O   LIG     1      93.174  96.750  93.066  1.00  0.00    -0.380 OA
HETATM   20  H   LIG     1      93.224  97.062  92.176  1.00  0.00     0.211 HD
ENDBRANCH   3  19
TORSDOF 6
ENDMDL
MODEL 3
REMARK VINA RESULT:      -0.0      4.149      5.163
REMARK  6 active torsions:
REMARK  status: ('A' for Active; 'I' for Inactive)
REMARK    1  A    between atoms: C_3  and  O_19 
REMARK    2  A    between atoms: C_4  and  O_17 
REMARK    3  A    between atoms: C_5  and  O_15 
REMARK    4  A    between atoms: C_6  and  O_7 
REMARK    5  A    between atoms: O_7  and  C_8 
REMARK    6  A    between atoms: C_8  and  C_9 
ROOT
HETATM    1  O   LIG     1      91.733  93.552  93.583  1.00  0.00    -0.326 OA
HETATM    2  C   LIG     1      92.814  94.120  92.848  1.00  0.00     0.177 C 
HETATM    3  C   LIG     1      93.912  93.061  92.645  1.00  0.00     0.170 C 
HETATM    4  C   LIG     1      94.370  92.477  93.996  1.00  0.00     0.172 C 
HETATM    5  C   LIG     1      93.147  91.977  94.791  1.00  0.00     0.197 C 
HETATM    6  C   LIG     1      92.087  93.110  94.865  1.00  0.00     0.266 C 
ENDROOT
BRANCH   6   7
HETATM    7  O   LIG     1      91.018  92.733  95.679  1.00  0.00    -0.324 OA
BRANCH   7   8
HETATM    8  C   LIG     1      89.729  92.747  95.076  1.00  0.00     0.172 C 
BRANCH   8   9
HETATM    9  C   LIG     1      89.249  91.349  94.733  1.00  0.00     0.007 A 
HETATM   10  C   LIG     1      88.833  91.041  93.421  1.00  0.00    -0.002 A 
HETATM   11  C   LIG     1      88.403  89.738  93.101  1.00  0.00    -0.000 A 
HETATM   12  C   LIG     1      88.393  88.737  94.090  1.00  0.00    -0.000 A 
HETATM   13  C   LIG     1      88.815  89.037  95.399  1.00  0.00    -0.000 A 
HETATM   14  C   LIG     1      89.246  90.340  95.720  1.00  0.00    -0.002 A 
ENDBRANCH   8   9
ENDBRANCH   7   8
ENDBRANCH   6   7
BRANCH   5  15
HETATM   15  O   LIG     1      92.645  90.799  94.191  1.00  0.00    -0.378 OA
HETATM   16  H   LIG     1      92.505  90.972  93.273  1.00  0.00     0.211 HD
ENDBRANCH   5  15
BRANCH   4  17
HETATM   17  O   LIG     1      95.062  93.450  94.762  1.00  0.00    -0.380 OA
HETATM   18  H   LIG     1      94.596  93.583  95.574  1.00  0.00     0.211 HD
ENDBRANCH   4  17
BRANCH   3  19
HETATM   19  O   LIG     1      95.003  93.595  91.920  1.00  0.00    -0.380 OA
HETATM   20  H   LIG     1      94.892  94.530  91.854  1.00  0.00     0.211 HD
ENDBRANCH   3  19
TORSDOF 6
ENDMDL
MODEL 4
REMARK VINA RESULT:       0.0      3.508      5.343
REMARK  6 active torsions:
REMARK  status: ('A' for Active; 'I' for Inactive)
REMARK    1  A    between atoms: C_3  and  O_19 
REMARK    2  A    between atoms: C_4  and  O_17 
REMARK    3  A    between atoms: C_5  and  O_15 
REMARK    4  A    between atoms: C_6  and  O_7 
REMARK    5  A    between atoms: O_7  and  C_8 
REMARK    6  A    between atoms: C_8  and  C_9 
ROOT
HETATM    1  O   LIG     1      88.934  93.650  90.540  1.00  0.00    -0.326 OA
HETATM    2  C   LIG     1      89.578  94.858  90.937  1.00  0.00     0.177 C 
HETATM    3  C   LIG     1      91.020  94.552  91.379  1.00  0.00     0.170 C 
HETATM    4  C   LIG     1      91.039  93.489  92.495  1.00  0.00     0.172 C 
HETATM    5  C   LIG     1      90.236  92.249  92.049  1.00  0.00     0.197 C 
HETATM    6  C   LIG     1      88.831  92.699  91.563  1.00  0.00     0.266 C 
ENDROOT
BRANCH   6   7
HETATM    7  O   LIG     1      88.034  91.591  91.265  1.00  0.00    -0.324 OA
BRANCH   7   8
HETATM    8  C   LIG     1      87.519  91.521  89.940  1.00  0.00     0.172 C 
BRANCH   8   9
HETATM    9  C   LIG     1      88.277  90.518  89.090  1.00  0.00     0.007 A 
HETATM   10  C   LIG     1      88.833  90.908  87.854  1.00  0.00    -0.002 A 
HETATM   11  C   LIG     1      89.550  89.979  87.074  1.00  0.00    -0.000 A 
HETATM   12  C   LIG     1      89.718  88.658  87.530  1.00  0.00    -0.000 A 
HETATM   13  C   LIG     1      89.172  88.266  88.767  1.00  0.00    -0.000 A 
HETATM   14  C   LIG     1      88.455  89.195  89.548  1.00  0.00    -0.002 A 
ENDBRANCH   8   9
ENDBRANCH   7   8
ENDBRANCH   6   7
BRANCH   5  15
HETATM   15  O   LIG     1      90.959  91.551  91.055  1.00  0.00    -0.378 OA
HETATM   16  H   LIG     1      90.348  91.252  90.400  1.00  0.00     0.211 HD
ENDBRANCH   5  15
BRANCH   4  17
HETATM   17  O   LIG     1      90.483  94.001  93.695  1.00  0.00    -0.380 OA
HETATM   18  H   LIG     1      90.341  94.930  93.590  1.00  0.00     0.211 HD
ENDBRANCH   4  17
BRANCH   3  19
HETATM   19  O   LIG     1      91.688  95.732  91.783  1.00  0.00    -0.380 OA
HETATM   20  H   LIG     1      91.882  95.666  92.705  1.00  0.00     0.211 HD
ENDBRANCH   3  19
TORSDOF 6
ENDMDL
MODEL 5
REMARK VINA RESULT:       0.0      2.227      2.669
REMARK  6 active torsions:
REMARK  status: ('A' for Active; 'I' for Inactive)
REMARK    1  A    between atoms: C_3  and  O_19 
REMARK    2  A    between atoms: C_4  and  O_17 
REMARK    3  A    between atoms: C_5  and  O_15 
REMARK    4  A    between atoms: C_6  and  O_7 
REMARK    5  A    between atoms: O_7  and  C_8 
REMARK    6  A    between atoms: C_8  and  C_9 
ROOT
HETATM    1  O   LIG     1      88.637  89.886  92.063  1.00  0.00    -0.326 OA
HETATM    2  C   LIG     1      89.158  90.294  90.801  1.00  0.00     0.177 C 
HETATM    3  C   LIG     1      88.088  90.097  89.713  1.00  0.00     0.170 C 
HETATM    4  C   LIG     1      87.588  88.639  89.692  1.00  0.00     0.172 C 
HETATM    5  C   LIG     1      87.138  88.220  91.107  1.00  0.00     0.197 C 
HETATM    6  C   LIG     1      88.275  88.534  92.118  1.00  0.00     0.266 C 
ENDROOT
BRANCH   6   7
HETATM    7  O   LIG     1      87.949  88.058  93.389  1.00  0.00    -0.324 OA
BRANCH   7   8
HETATM    8  C   LIG     1      87.926  89.020  94.438  1.00  0.00     0.172 C 
BRANCH   8   9
HETATM    9  C   LIG     1      86.510  89.409  94.819  1.00  0.00     0.007 A 
HETATM   10  C   LIG     1      86.121  90.765  94.828  1.00  0.00    -0.002 A 
HETATM   11  C   LIG     1      84.802  91.123  95.167  1.00  0.00    -0.000 A 
HETATM   12  C   LIG     1      83.864  90.125  95.493  1.00  0.00    -0.000 A 
HETATM   13  C   LIG     1      84.244  88.770  95.478  1.00  0.00    -0.000 A 
HETATM   14  C   LIG     1      85.564  88.411  95.139  1.00  0.00    -0.002 A 
ENDBRANCH   8   9
ENDBRANCH   7   8
ENDBRANCH   6   7
BRANCH   5  15
HETATM   15  O   LIG     1      85.926  88.873  91.429  1.00  0.00    -0.378 OA
HETATM   16  H   LIG     1      86.039  89.798  91.273  1.00  0.00     0.211 HD
ENDBRANCH   5  15
BRANCH   4  17
HETATM   17  O   LIG     1      88.606  87.759  89.244  1.00  0.00    -0.380 OA
HETATM   18  H   LIG     1      88.312  87.336  88.450  1.00  0.00     0.211 HD
ENDBRANCH   4  17
BRANCH   3  19
HETATM   19  O   LIG     1      88.575  90.491  88.445  1.00  0.00    -0.380 OA
HETATM   20  H   LIG     1      88.007  90.134  87.780  1.00  0.00     0.211 HD
ENDBRANCH   3  19
TORSDOF 6
ENDMDL
MODEL 6
REMARK VINA RESULT:       0.0      6.090      7.407
REMARK  6 active torsions:
REMARK  status: ('A' for Active; 'I' for Inactive)
REMARK    1  A    between atoms: C_3  and  O_19 
REMARK    2  A    between atoms: C_4  and  O_17 
REMARK    3  A    between atoms: C_5  and  O_15 
REMARK    4  A    between atoms: C_6  and  O_7 
REMARK    5  A    between atoms: O_7  and  C_8 
REMARK    6  A    between atoms: C_8  and  C_9 
ROOT
HETATM    1  O   LIG     1      83.776  94.716  91.833  1.00  0.00    -0.326 OA
HETATM    2  C   LIG     1      83.374  96.079  91.729  1.00  0.00     0.177 C 
HETATM    3  C   LIG     1      82.991  96.394  90.272  1.00  0.00     0.170 C 
HETATM    4  C   LIG     1      84.149  96.054  89.313  1.00  0.00     0.172 C 
HETATM    5  C   LIG     1      84.612  94.601  89.547  1.00  0.00     0.197 C 
HETATM    6  C   LIG     1      84.899  94.394  91.060  1.00  0.00     0.266 C 
ENDROOT
BRANCH   6   7
HETATM    7  O   LIG     1      85.434  93.126  91.291  1.00  0.00    -0.324 OA
BRANCH   7   8
HETATM    8  C   LIG     1      84.719  92.293  92.196  1.00  0.00     0.172 C 
BRANCH   8   9
HETATM    9  C   LIG     1      83.921  91.224  91.473  1.00  0.00     0.007 A 
HETATM   10  C   LIG     1      82.537  91.084  91.711  1.00  0.00    -0.002 A 
HETATM   11  C   LIG     1      81.796  90.101  91.026  1.00  0.00    -0.000 A 
HETATM   12  C   LIG     1      82.433  89.259  90.096  1.00  0.00    -0.000 A 
HETATM   13  C   LIG     1      83.812  89.400  89.848  1.00  0.00    -0.000 A 
HETATM   14  C   LIG     1      84.554  90.383  90.532  1.00  0.00    -0.002 A 
ENDBRANCH   8   9
ENDBRANCH   7   8
ENDBRANCH   6   7
BRANCH   5  15
HETATM   15  O   LIG     1      83.634  93.709  89.050  1.00  0.00    -0.378 OA
HETATM   16  H   LIG     1      83.990  92.834  89.080  1.00  0.00     0.211 HD
ENDBRANCH   5  15
BRANCH   4  17
HETATM   17  O   LIG     1      85.245  96.933  89.508  1.00  0.00    -0.380 OA
HETATM   18  H   LIG     1      85.133  97.378  90.335  1.00  0.00     0.211 HD
ENDBRANCH   4  17
BRANCH   3  19
HETATM   19  O   LIG     1      82.589  97.743  90.133  1.00  0.00    -0.380 OA
HETATM   20  H   LIG     1      83.284  98.221  89.707  1.00  0.00     0.211 HD
ENDBRANCH   3  19
TORSDOF 6
ENDMDL
MODEL 7
REMARK VINA RESULT:       0.0      7.109     10.266
REMARK  6 active torsions:
REMARK  status: ('A' for Active; 'I' for Inactive)
REMARK    1  A    between atoms: C_3  and  O_19 
REMARK    2  A    between atoms: C_4  and  O_17 
REMARK    3  A    between atoms: C_5  and  O_15 
REMARK    4  A    between atoms: C_6  and  O_7 
REMARK    5  A    between atoms: O_7  and  C_8 
REMARK    6  A    between atoms: C_8  and  C_9 
ROOT
HETATM    1  O   LIG     1      92.437  96.067  89.005  1.00  0.00    -0.326 OA
HETATM    2  C   LIG     1      92.945  95.584  90.246  1.00  0.00     0.177 C 
HETATM    3  C   LIG     1      94.052  94.549  89.982  1.00  0.00     0.170 C 
HETATM    4  C   LIG     1      93.535  93.408  89.082  1.00  0.00     0.172 C 
HETATM    5  C   LIG     1      92.901  93.997  87.805  1.00  0.00     0.197 C 
HETATM    6  C   LIG     1      91.855  95.075  88.205  1.00  0.00     0.266 C 
ENDROOT
BRANCH   6   7
HETATM    7  O   LIG     1      91.176  95.543  87.079  1.00  0.00    -0.324 OA
BRANCH   7   8
HETATM    8  C   LIG     1      91.247  96.944  86.835  1.00  0.00     0.172 C 
BRANCH   8   9
HETATM    9  C   LIG     1      92.213  97.275  85.714  1.00  0.00     0.007 A 
HETATM   10  C   LIG     1      93.256  98.203  85.922  1.00  0.00    -0.002 A 
HETATM   11  C   LIG     1      94.161  98.497  84.884  1.00  0.00    -0.000 A 
HETATM   12  C   LIG     1      94.032  97.860  83.635  1.00  0.00    -0.000 A 
HETATM   13  C   LIG     1      92.999  96.927  83.425  1.00  0.00    -0.000 A 
HETATM   14  C   LIG     1      92.093  96.632  84.463  1.00  0.00    -0.002 A 
ENDBRANCH   8   9
ENDBRANCH   7   8
ENDBRANCH   6   7
BRANCH   5  15
HETATM   15  O   LIG     1      93.917  94.508  86.967  1.00  0.00    -0.378 OA
HETATM   16  H   LIG     1      94.398  95.163  87.450  1.00  0.00     0.211 HD
ENDBRANCH   5  15
BRANCH   4  17
HETATM   17  O   LIG     1      92.574  92.619  89.764  1.00  0.00    -0.380 OA
HETATM   18  H   LIG     1      91.720  93.007  89.638  1.00  0.00     0.211 HD
ENDBRANCH   4  17
BRANCH   3  19
HETATM   19  O   LIG     1      94.577  94.046  91.196  1.00  0.00    -0.380 OA
HETATM   20  H   LIG     1      94.962  94.763  91.677  1.00  0.00     0.211 HD
ENDBRANCH   3  19
TORSDOF 6
ENDMDL
MODEL 8
REMARK VINA RESULT:       0.0      8.110      9.889
REMARK  6 active torsions:
REMARK  status: ('A' for Active; 'I' for Inactive)
REMARK    1  A    between atoms: C_3  and  O_19 
REMARK    2  A    between atoms: C_4  and  O_17 
REMARK    3  A    between atoms: C_5  and  O_15 
REMARK    4  A    between atoms: C_6  and  O_7 
REMARK    5  A    between atoms: O_7  and  C_8 
REMARK    6  A    between atoms: C_8  and  C_9 
ROOT
HETATM    1  O   LIG     1      86.247  85.679  84.288  1.00  0.00    -0.326 OA
HETATM    2  C   LIG     1      84.945  86.258  84.286  1.00  0.00     0.177 C 
HETATM    3  C   LIG     1      83.888  85.150  84.433  1.00  0.00     0.170 C 
HETATM    4  C   LIG     1      84.052  84.084  83.331  1.00  0.00     0.172 C 
HETATM    5  C   LIG     1      85.507  83.572  83.312  1.00  0.00     0.197 C 
HETATM    6  C   LIG     1      86.473  84.786  83.233  1.00  0.00     0.266 C 
ENDROOT
BRANCH   6   7
HETATM    7  O   LIG     1      87.794  84.355  83.092  1.00  0.00    -0.324 OA
BRANCH   7   8
HETATM    8  C   LIG     1      88.710  84.792  84.089  1.00  0.00     0.172 C 
BRANCH   8   9
HETATM    9  C   LIG     1      89.034  83.691  85.082  1.00  0.00     0.007 A 
HETATM   10  C   LIG     1      88.867  83.908  86.466  1.00  0.00    -0.002 A 
HETATM   11  C   LIG     1      89.153  82.879  87.385  1.00  0.00    -0.000 A 
HETATM   12  C   LIG     1      89.602  81.628  86.923  1.00  0.00    -0.000 A 
HETATM   13  C   LIG     1      89.762  81.403  85.543  1.00  0.00    -0.000 A 
HETATM   14  C   LIG     1      89.476  82.432  84.623  1.00  0.00    -0.002 A 
ENDBRANCH   8   9
ENDBRANCH   7   8
ENDBRANCH   6   7
BRANCH   5  15
HETATM   15  O   LIG     1      85.738  82.765  84.449  1.00  0.00    -0.378 OA
HETATM   16  H   LIG     1      85.298  81.939  84.319  1.00  0.00     0.211 HD
ENDBRANCH   5  15
BRANCH   4  17
HETATM   17  O   LIG     1      83.723  84.614  82.058  1.00  0.00    -0.380 OA
HETATM   18  H   LIG     1      84.098  85.479  81.984  1.00  0.00     0.211 HD
ENDBRANCH   4  17
BRANCH   3  19
HETATM   19  O   LIG     1      82.581  85.692  84.431  1.00  0.00    -0.380 OA
HETATM   20  H   LIG     1      82.642  86.625  84.569  1.00  0.00     0.211 HD
ENDBRANCH   3  19
TORSDOF 6
ENDMDL
MODEL 9
REMARK VINA RESULT:       0.0      7.307      9.308
REMARK  6 active torsions:
REMARK  status: ('A' for Active; 'I' for Inactive)
REMARK    1  A    between atoms: C_3  and  O_19 
REMARK    2  A    between atoms: C_4  and  O_17 
REMARK    3  A    between atoms: C_5  and  O_15 
REMARK    4  A    between atoms: C_6  and  O_7 
REMARK    5  A    between atoms: O_7  and  C_8 
REMARK    6  A    between atoms: C_8  and  C_9 
ROOT
HETATM    1  O   LIG     1      90.458  93.467  85.973  1.00  0.00    -0.326 OA
HETATM    2  C   LIG     1      90.345  92.086  85.642  1.00  0.00     0.177 C 
HETATM    3  C   LIG     1      91.695  91.569  85.116  1.00  0.00     0.170 C 
HETATM    4  C   LIG     1      92.180  92.415  83.922  1.00  0.00     0.172 C 
HETATM    5  C   LIG     1      92.180  93.909  84.306  1.00  0.00     0.197 C 
HETATM    6  C   LIG     1      90.789  94.287  84.885  1.00  0.00     0.266 C 
ENDROOT
BRANCH   6   7
HETATM    7  O   LIG     1      90.714  95.659  85.131  1.00  0.00    -0.324 OA
BRANCH   7   8
HETATM    8  C   LIG     1      90.415  96.046  86.468  1.00  0.00     0.172 C 
BRANCH   8   9
HETATM    9  C   LIG     1      91.647  96.536  87.205  1.00  0.00     0.007 A 
HETATM   10  C   LIG     1      92.013  95.962  88.441  1.00  0.00    -0.002 A 
HETATM   11  C   LIG     1      93.166  96.407  89.116  1.00  0.00    -0.000 A 
HETATM   12  C   LIG     1      93.962  97.424  88.555  1.00  0.00    -0.000 A 
HETATM   13  C   LIG     1      93.606  97.994  87.318  1.00  0.00    -0.000 A 
HETATM   14  C   LIG     1      92.453  97.548  86.642  1.00  0.00    -0.002 A 
ENDBRANCH   8   9
ENDBRANCH   7   8
ENDBRANCH   6   7
BRANCH   5  15
HETATM   15  O   LIG     1      93.235  94.164  85.211  1.00  0.00    -0.378 OA
HETATM   16  H   LIG     1      94.025  93.782  84.859  1.00  0.00     0.211 HD
ENDBRANCH   5  15
BRANCH   4  17
HETATM   17  O   LIG     1      91.349  92.220  82.790  1.00  0.00    -0.380 OA
HETATM   18  H   LIG     1      90.555  91.787  83.068  1.00  0.00     0.211 HD
ENDBRANCH   4  17
BRANCH   3  19
HETATM   19  O   LIG     1      91.616  90.198  84.775  1.00  0.00    -0.380 OA
HETATM   20  H   LIG     1      92.423  89.778  85.028  1.00  0.00     0.211 HD
ENDBRANCH   3  19
TORSDOF 6
ENDMDL
