MODEL 1
REMARK VINA RESULT:       0.0      0.000      0.000
REMARK  5 active torsions:
REMARK  status: ('A' for Active; 'I' for Inactive)
REMARK    1  A    between atoms: C_2  and  C_8 
REMARK    2  A    between atoms: C_3  and  O_21 
REMARK    3  A    between atoms: C_5  and  O_19 
REMARK    4  A    between atoms: C_9  and  O_15 
REMARK    5  A    between atoms: C_12  and  O_17 
ROOT
HETATM    1  C   LIG     1      90.807  89.527  93.807  1.00  0.00     0.026 A 
HETATM    2  C   LIG     1      92.163  89.198  94.025  1.00  0.00     0.026 A 
HETATM    3  C   LIG     1      90.249  89.500  92.516  1.00  0.00     0.086 A 
HETATM    4  C   LIG     1      91.048  89.139  91.409  1.00  0.00     0.002 A 
HETATM    5  C   LIG     1      92.958  88.836  92.909  1.00  0.00     0.089 A 
HETATM    6  C   LIG     1      92.402  88.808  91.615  1.00  0.00     0.022 A 
HETATM    7  C   LIG     1      90.465  89.104  90.008  1.00  0.00     0.033 C 
ENDROOT
BRANCH   2   8
HETATM    8  C   LIG     1      92.717  89.243  95.393  1.00  0.00     0.026 A 
HETATM    9  C   LIG     1      93.258  90.450  95.889  1.00  0.00     0.026 A 
HETATM   10  C   LIG     1      93.789  90.530  97.191  1.00  0.00     0.086 A 
HETATM   11  C   LIG     1      93.783  89.392  98.024  1.00  0.00     0.002 A 
HETATM   12  C   LIG     1      94.350  89.459  99.430  1.00  0.00     0.033 C 
HETATM   13  C   LIG     1      93.245  88.182  97.540  1.00  0.00     0.022 A 
HETATM   14  C   LIG     1      92.716  88.105  96.236  1.00  0.00     0.089 A 
BRANCH  10  15
HETATM   15  O   LIG     1      94.304  91.714  97.634  1.00  0.00    -0.359 OA
HETATM   16  H   LIG     1      95.113  91.951  97.206  1.00  0.00     0.217 HD
ENDBRANCH  10  15
BRANCH  14  17
HETATM   17  O   LIG     1      92.213  86.912  95.800  1.00  0.00    -0.359 OA
HETATM   18  H   LIG     1      91.606  87.003  95.082  1.00  0.00     0.217 HD
ENDBRANCH  14  17
ENDBRANCH   2   8
BRANCH   5  19
HETATM   19  O   LIG     1      94.273  88.500  93.069  1.00  0.00    -0.359 OA
HETATM   20  H   LIG     1      94.403  87.770  93.655  1.00  0.00     0.217 HD
ENDBRANCH   5  19
BRANCH   3  21
HETATM   21  O   LIG     1      88.933  89.826  92.350  1.00  0.00    -0.359 OA
HETATM   22  H   LIG     1      88.595  90.364  93.049  1.00  0.00     0.217 HD
ENDBRANCH   3  21
TORSDOF 5
ENDMDL
MODEL 2
REMARK VINA RESULT:       0.0      1.494      6.157
REMARK  5 active torsions:
REMARK  status: ('A' for Active; 'I' for Inactive)
REMARK    1  A    between atoms: C_2  and  C_8 
REMARK    2  A    between atoms: C_3  and  O_21 
REMARK    3  A    between atoms: C_5  and  O_19 
REMARK    4  A    between atoms: C_9  and  O_15 
REMARK    5  A    between atoms: C_12  and  O_17 
ROOT
HETATM    1  C   LIG     1      93.043  88.680  95.958  1.00  0.00     0.026 A 
HETATM    2  C   LIG     1      92.620  87.635  95.108  1.00  0.00     0.026 A 
HETATM    3  C   LIG     1      93.749  88.412  97.146  1.00  0.00     0.086 A 
HETATM    4  C   LIG     1      94.044  87.079  97.506  1.00  0.00     0.002 A 
HETATM    5  C   LIG     1      92.921  86.300  95.476  1.00  0.00     0.089 A 
HETATM    6  C   LIG     1      93.627  86.029  96.665  1.00  0.00     0.022 A 
HETATM    7  C   LIG     1      94.804  86.769  98.782  1.00  0.00     0.033 C 
ENDROOT
BRANCH   2   8
HETATM    8  C   LIG     1      91.876  87.953  93.873  1.00  0.00     0.026 A 
HETATM    9  C   LIG     1      90.468  88.066  93.914  1.00  0.00     0.026 A 
HETATM   10  C   LIG     1      89.728  88.373  92.755  1.00  0.00     0.086 A 
HETATM   11  C   LIG     1      90.394  88.577  91.529  1.00  0.00     0.002 A 
HETATM   12  C   LIG     1      89.613  88.910  90.270  1.00  0.00     0.033 C 
HETATM   13  C   LIG     1      91.798  88.468  91.476  1.00  0.00     0.022 A 
HETATM   14  C   LIG     1      92.536  88.158  92.637  1.00  0.00     0.089 A 
BRANCH  10  15
HETATM   15  O   LIG     1      88.369  88.473  92.835  1.00  0.00    -0.359 OA
HETATM   16  H   LIG     1      88.029  88.260  93.691  1.00  0.00     0.217 HD
ENDBRANCH  10  15
BRANCH  14  17
HETATM   17  O   LIG     1      93.894  88.051  92.543  1.00  0.00    -0.359 OA
HETATM   18  H   LIG     1      94.175  87.366  91.955  1.00  0.00     0.217 HD
ENDBRANCH  14  17
ENDBRANCH   2   8
BRANCH   5  19
HETATM   19  O   LIG     1      92.540  85.255  94.682  1.00  0.00    -0.359 OA
HETATM   20  H   LIG     1      92.739  84.411  95.057  1.00  0.00     0.217 HD
ENDBRANCH   5  19
BRANCH   3  21
HETATM   21  O   LIG     1      94.140  89.452  97.940  1.00  0.00    -0.359 OA
HETATM   22  H   LIG     1      93.466  90.107  98.049  1.00  0.00     0.217 HD
ENDBRANCH   3  21
TORSDOF 5
ENDMDL
MODEL 3
REMARK VINA RESULT:       0.0      3.420      4.121
REMARK  5 active torsions:
REMARK  status: ('A' for Active; 'I' for Inactive)
REMARK    1  A    between atoms: C_2  and  C_8 
REMARK    2  A    between atoms: C_3  and  O_21 
REMARK    3  A    between atoms: C_5  and  O_19 
REMARK    4  A    between atoms: C_9  and  O_15 
REMARK    5  A    between atoms: C_12  and  O_17 
ROOT
HETATM    1  C   LIG     1      89.672  88.277  95.034  1.00  0.00     0.026 A 
HETATM    2  C   LIG     1      89.985  87.038  95.635  1.00  0.00     0.026 A 
HETATM    3  C   LIG     1      88.510  88.436  94.255  1.00  0.00     0.086 A 
HETATM    4  C   LIG     1      87.634  87.346  94.064  1.00  0.00     0.002 A 
HETATM    5  C   LIG     1      89.100  85.949  95.439  1.00  0.00     0.089 A 
HETATM    6  C   LIG     1      87.936  86.106  94.660  1.00  0.00     0.022 A 
HETATM    7  C   LIG     1      86.376  87.498  93.229  1.00  0.00     0.033 C 
ENDROOT
BRANCH   2   8
HETATM    8  C   LIG     1      91.216  86.906  96.440  1.00  0.00     0.026 A 
HETATM    9  C   LIG     1      92.428  86.548  95.809  1.00  0.00     0.026 A 
HETATM   10  C   LIG     1      93.622  86.418  96.545  1.00  0.00     0.086 A 
HETATM   11  C   LIG     1      93.619  86.650  97.937  1.00  0.00     0.002 A 
HETATM   12  C   LIG     1      94.896  86.516  98.747  1.00  0.00     0.033 C 
HETATM   13  C   LIG     1      92.416  87.009  98.576  1.00  0.00     0.022 A 
HETATM   14  C   LIG     1      91.222  87.135  97.836  1.00  0.00     0.089 A 
BRANCH  10  15
HETATM   15  O   LIG     1      94.773  86.069  95.900  1.00  0.00    -0.359 OA
HETATM   16  H   LIG     1      95.535  86.095  96.459  1.00  0.00     0.217 HD
ENDBRANCH  10  15
BRANCH  14  17
HETATM   17  O   LIG     1      90.074  87.474  98.494  1.00  0.00    -0.359 OA
HETATM   18  H   LIG     1      90.194  88.175  99.118  1.00  0.00     0.217 HD
ENDBRANCH  14  17
ENDBRANCH   2   8
BRANCH   5  19
HETATM   19  O   LIG     1      89.354  84.733  96.007  1.00  0.00    -0.359 OA
HETATM   20  H   LIG     1      88.609  84.152  95.993  1.00  0.00     0.217 HD
ENDBRANCH   5  19
BRANCH   3  21
HETATM   21  O   LIG     1      88.246  89.652  93.692  1.00  0.00    -0.359 OA
HETATM   22  H   LIG     1      87.435  89.666  93.207  1.00  0.00     0.217 HD
ENDBRANCH   3  21
TORSDOF 5
ENDMDL
MODEL 4
REMARK VINA RESULT:       0.0      6.272      8.441
REMARK  5 active torsions:
REMARK  status: ('A' for Active; 'I' for Inactive)
REMARK    1  A    between atoms: C_2  and  C_8 
REMARK    2  A    between atoms: C_3  and  O_21 
REMARK    3  A    between atoms: C_5  and  O_19 
REMARK    4  A    between atoms: C_9  and  O_15 
REMARK    5  A    between atoms: C_12  and  O_17 
ROOT
HETATM    1  C   LIG     1      92.548  83.737  95.431  1.00  0.00     0.026 A 
HETATM    2  C   LIG     1      93.488  82.685  95.382  1.00  0.00     0.026 A 
HETATM    3  C   LIG     1      91.523  83.755  96.395  1.00  0.00     0.086 A 
HETATM    4  C   LIG     1      91.421  82.707  97.337  1.00  0.00     0.002 A 
HETATM    5  C   LIG     1      93.380  81.638  96.331  1.00  0.00     0.089 A 
HETATM    6  C   LIG     1      92.355  81.653  97.298  1.00  0.00     0.022 A 
HETATM    7  C   LIG     1      90.324  82.709  98.385  1.00  0.00     0.033 C 
ENDROOT
BRANCH   2   8
HETATM    8  C   LIG     1      94.546  82.696  94.352  1.00  0.00     0.026 A 
HETATM    9  C   LIG     1      94.299  82.111  93.090  1.00  0.00     0.026 A 
HETATM   10  C   LIG     1      95.284  82.109  92.083  1.00  0.00     0.086 A 
HETATM   11  C   LIG     1      96.541  82.700  92.328  1.00  0.00     0.002 A 
HETATM   12  C   LIG     1      97.614  82.708  91.254  1.00  0.00     0.033 C 
HETATM   13  C   LIG     1      96.798  83.287  93.583  1.00  0.00     0.022 A 
HETATM   14  C   LIG     1      95.811  83.285  94.589  1.00  0.00     0.089 A 
BRANCH  10  15
HETATM   15  O   LIG     1      95.008  81.534  90.877  1.00  0.00    -0.359 OA
HETATM   16  H   LIG     1      94.754  80.626  90.946  1.00  0.00     0.217 HD
ENDBRANCH  10  15
BRANCH  14  17
HETATM   17  O   LIG     1      96.102  83.855  95.796  1.00  0.00    -0.359 OA
HETATM   18  H   LIG     1      95.957  84.788  95.813  1.00  0.00     0.217 HD
ENDBRANCH  14  17
ENDBRANCH   2   8
BRANCH   5  19
HETATM   19  O   LIG     1      94.271  80.602  96.331  1.00  0.00    -0.359 OA
HETATM   20  H   LIG     1      94.673  80.455  95.488  1.00  0.00     0.217 HD
ENDBRANCH   5  19
BRANCH   3  21
HETATM   21  O   LIG     1      90.634  84.792  96.406  1.00  0.00    -0.359 OA
HETATM   22  H   LIG     1      90.225  84.937  95.567  1.00  0.00     0.217 HD
ENDBRANCH   3  21
TORSDOF 5
ENDMDL
MODEL 5
REMARK VINA RESULT:       0.0      1.944      2.250
REMARK  5 active torsions:
REMARK  status: ('A' for Active; 'I' for Inactive)
REMARK    1  A    between atoms: C_2  and  C_8 
REMARK    2  A    between atoms: C_3  and  O_21 
REMARK    3  A    between atoms: C_5  and  O_19 
REMARK    4  A    between atoms: C_9  and  O_15 
REMARK    5  A    between atoms: C_12  and  O_17 
ROOT
HETATM    1  C   LIG     1      91.240  90.652  94.817  1.00  0.00     0.026 A 
HETATM    2  C   LIG     1      92.107  89.538  94.794  1.00  0.00     0.026 A 
HETATM    3  C   LIG     1      91.071  91.468  93.683  1.00  0.00     0.086 A 
HETATM    4  C   LIG     1      91.776  91.178  92.494  1.00  0.00     0.002 A 
HETATM    5  C   LIG     1      92.810  89.253  93.598  1.00  0.00     0.089 A 
HETATM    6  C   LIG     1      92.643  90.068  92.460  1.00  0.00     0.022 A 
HETATM    7  C   LIG     1      91.606  92.044  91.260  1.00  0.00     0.033 C 
ENDROOT
BRANCH   2   8
HETATM    8  C   LIG     1      92.265  88.709  96.006  1.00  0.00     0.026 A 
HETATM    9  C   LIG     1      93.243  89.052  96.966  1.00  0.00     0.026 A 
HETATM   10  C   LIG     1      93.416  88.286  98.135  1.00  0.00     0.086 A 
HETATM   11  C   LIG     1      92.603  87.156  98.363  1.00  0.00     0.002 A 
HETATM   12  C   LIG     1      92.775  86.319  99.617  1.00  0.00     0.033 C 
HETATM   13  C   LIG     1      91.624  86.805  97.412  1.00  0.00     0.022 A 
HETATM   14  C   LIG     1      91.454  87.572  96.242  1.00  0.00     0.089 A 
BRANCH  10  15
HETATM   15  O   LIG     1      94.373  88.648  99.038  1.00  0.00    -0.359 OA
HETATM   16  H   LIG     1      94.768  87.911  99.480  1.00  0.00     0.217 HD
ENDBRANCH  10  15
BRANCH  14  17
HETATM   17  O   LIG     1      90.501  87.194  95.340  1.00  0.00    -0.359 OA
HETATM   18  H   LIG     1      90.560  86.283  95.095  1.00  0.00     0.217 HD
ENDBRANCH  14  17
ENDBRANCH   2   8
BRANCH   5  19
HETATM   19  O   LIG     1      93.654  88.181  93.522  1.00  0.00    -0.359 OA
HETATM   20  H   LIG     1      93.749  87.843  92.645  1.00  0.00     0.217 HD
ENDBRANCH   5  19
BRANCH   3  21
HETATM   21  O   LIG     1      90.222  92.536  93.749  1.00  0.00    -0.359 OA
HETATM   22  H   LIG     1      90.668  93.351  93.922  1.00  0.00     0.217 HD
ENDBRANCH   3  21
TORSDOF 5
ENDMDL
MODEL 6
REMARK VINA RESULT:       0.0      4.717      6.741
REMARK  5 active torsions:
REMARK  status: ('A' for Active; 'I' for Inactive)
REMARK    1  A    between atoms: C_2  and  C_8 
REMARK    2  A    between atoms: C_3  and  O_21 
REMARK    3  A    between atoms: C_5  and  O_19 
REMARK    4  A    between atoms: C_9  and  O_15 
REMARK    5  A    between atoms: C_12  and  O_17 
ROOT
HETATM    1  C   LIG     1      92.638  85.425  88.087  1.00  0.00     0.026 A 
HETATM    2  C   LIG     1      92.487  86.704  88.666  1.00  0.00     0.026 A 
HETATM    3  C   LIG     1      91.642  84.879  87.255  1.00  0.00     0.086 A 
HETATM    4  C   LIG     1      90.466  85.613  86.987  1.00  0.00     0.002 A 
HETATM    5  C   LIG     1      91.305  87.435  88.391  1.00  0.00     0.089 A 
HETATM    6  C   LIG     1      90.306  86.891  87.559  1.00  0.00     0.022 A 
HETATM    7  C   LIG     1      89.381  85.043  86.092  1.00  0.00     0.033 C 
ENDROOT
BRANCH   2   8
HETATM    8  C   LIG     1      93.549  87.242  89.539  1.00  0.00     0.026 A 
HETATM    9  C   LIG     1      93.526  86.960  90.923  1.00  0.00     0.026 A 
HETATM   10  C   LIG     1      94.527  87.453  91.783  1.00  0.00     0.086 A 
HETATM   11  C   LIG     1      95.576  88.240  91.264  1.00  0.00     0.002 A 
HETATM   12  C   LIG     1      96.664  88.779  92.176  1.00  0.00     0.033 C 
HETATM   13  C   LIG     1      95.609  88.526  89.885  1.00  0.00     0.022 A 
HETATM   14  C   LIG     1      94.605  88.034  89.027  1.00  0.00     0.089 A 
BRANCH  10  15
HETATM   15  O   LIG     1      94.470  87.160  93.115  1.00  0.00    -0.359 OA
HETATM   16  H   LIG     1      94.956  86.383  93.347  1.00  0.00     0.217 HD
ENDBRANCH  10  15
BRANCH  14  17
HETATM   17  O   LIG     1      94.667  88.342  87.698  1.00  0.00    -0.359 OA
HETATM   18  H   LIG     1      93.820  88.511  87.314  1.00  0.00     0.217 HD
ENDBRANCH  14  17
ENDBRANCH   2   8
BRANCH   5  19
HETATM   19  O   LIG     1      91.116  88.681  88.920  1.00  0.00    -0.359 OA
HETATM   20  H   LIG     1      91.566  89.360  88.442  1.00  0.00     0.217 HD
ENDBRANCH   5  19
BRANCH   3  21
HETATM   21  O   LIG     1      91.828  83.638  86.717  1.00  0.00    -0.359 OA
HETATM   22  H   LIG     1      91.782  82.945  87.359  1.00  0.00     0.217 HD
ENDBRANCH   3  21
TORSDOF 5
ENDMDL
MODEL 7
REMARK VINA RESULT:       0.0      6.909      7.929
REMARK  5 active torsions:
REMARK  status: ('A' for Active; 'I' for Inactive)
REMARK    1  A    between atoms: C_2  and  C_8 
REMARK    2  A    between atoms: C_3  and  O_21 
REMARK    3  A    between atoms: C_5  and  O_19 
REMARK    4  A    between atoms: C_9  and  O_15 
REMARK    5  A    between atoms: C_12  and  O_17 
ROOT
HETATM    1  C   LIG     1      90.396  97.490  90.590  1.00  0.00     0.026 A 
HETATM    2  C   LIG     1      90.774  96.269  91.188  1.00  0.00     0.026 A 
HETATM    3  C   LIG     1      89.636  97.518  89.406  1.00  0.00     0.086 A 
HETATM    4  C   LIG     1      89.238  96.309  88.795  1.00  0.00     0.002 A 
HETATM    5  C   LIG     1      90.370  95.060  90.569  1.00  0.00     0.089 A 
HETATM    6  C   LIG     1      89.608  95.084  89.384  1.00  0.00     0.022 A 
HETATM    7  C   LIG     1      88.417  96.317  87.519  1.00  0.00     0.033 C 
ENDROOT
BRANCH   2   8
HETATM    8  C   LIG     1      91.578  96.278  92.427  1.00  0.00     0.026 A 
HETATM    9  C   LIG     1      92.988  96.310  92.345  1.00  0.00     0.026 A 
HETATM   10  C   LIG     1      93.784  96.326  93.506  1.00  0.00     0.086 A 
HETATM   11  C   LIG     1      93.174  96.311  94.778  1.00  0.00     0.002 A 
HETATM   12  C   LIG     1      94.017  96.328  96.041  1.00  0.00     0.033 C 
HETATM   13  C   LIG     1      91.769  96.280  94.872  1.00  0.00     0.022 A 
HETATM   14  C   LIG     1      90.974  96.262  93.707  1.00  0.00     0.089 A 
BRANCH  10  15
HETATM   15  O   LIG     1      95.144  96.356  93.387  1.00  0.00    -0.359 OA
HETATM   16  H   LIG     1      95.507  95.547  93.061  1.00  0.00     0.217 HD
ENDBRANCH  10  15
BRANCH  14  17
HETATM   17  O   LIG     1      89.615  96.221  93.839  1.00  0.00    -0.359 OA
HETATM   18  H   LIG     1      89.177  95.873  93.078  1.00  0.00     0.217 HD
ENDBRANCH  14  17
ENDBRANCH   2   8
BRANCH   5  19
HETATM   19  O   LIG     1      90.702  93.851  91.114  1.00  0.00    -0.359 OA
HETATM   20  H   LIG     1      90.872  93.185  90.467  1.00  0.00     0.217 HD
ENDBRANCH   5  19
BRANCH   3  21
HETATM   21  O   LIG     1      89.293  98.722  88.860  1.00  0.00    -0.359 OA
HETATM   22  H   LIG     1      89.450  98.765  87.929  1.00  0.00     0.217 HD
ENDBRANCH   3  21
TORSDOF 5
ENDMDL
MODEL 8
REMARK VINA RESULT:       0.0      4.480      5.496
REMARK  5 active torsions:
REMARK  status: ('A' for Active; 'I' for Inactive)
REMARK    1  A    between atoms: C_2  and  C_8 
REMARK    2  A    between atoms: C_3  and  O_21 
REMARK    3  A    between atoms: C_5  and  O_19 
REMARK    4  A    between atoms: C_9  and  O_15 
REMARK    5  A    between atoms: C_12  and  O_17 
ROOT
HETATM    1  C   LIG     1      89.423  91.056  93.289  1.00  0.00     0.026 A 
HETATM    2  C   LIG     1      89.949  91.379  92.019  1.00  0.00     0.026 A 
HETATM    3  C   LIG     1      88.084  91.340  93.617  1.00  0.00     0.086 A 
HETATM    4  C   LIG     1      87.242  91.960  92.669  1.00  0.00     0.002 A 
HETATM    5  C   LIG     1      89.097  92.000  91.072  1.00  0.00     0.089 A 
HETATM    6  C   LIG     1      87.756  92.286  91.398  1.00  0.00     0.022 A 
HETATM    7  C   LIG     1      85.795  92.274  93.003  1.00  0.00     0.033 C 
ENDROOT
BRANCH   2   8
HETATM    8  C   LIG     1      91.360  91.072  91.711  1.00  0.00     0.026 A 
HETATM    9  C   LIG     1      92.364  92.018  92.018  1.00  0.00     0.026 A 
HETATM   10  C   LIG     1      93.720  91.755  91.744  1.00  0.00     0.086 A 
HETATM   11  C   LIG     1      94.094  90.529  91.155  1.00  0.00     0.002 A 
HETATM   12  C   LIG     1      95.551  90.228  90.852  1.00  0.00     0.033 C 
HETATM   13  C   LIG     1      93.102  89.578  90.845  1.00  0.00     0.022 A 
HETATM   14  C   LIG     1      91.745  89.845  91.119  1.00  0.00     0.089 A 
BRANCH  10  15
HETATM   15  O   LIG     1      94.662  92.694  92.054  1.00  0.00    -0.359 OA
HETATM   16  H   LIG     1      94.873  93.263  91.329  1.00  0.00     0.217 HD
ENDBRANCH  10  15
BRANCH  14  17
HETATM   17  O   LIG     1      90.811  88.903  90.795  1.00  0.00    -0.359 OA
HETATM   18  H   LIG     1      90.727  88.221  91.444  1.00  0.00     0.217 HD
ENDBRANCH  14  17
ENDBRANCH   2   8
BRANCH   5  19
HETATM   19  O   LIG     1      89.556  92.324  89.827  1.00  0.00    -0.359 OA
HETATM   20  H   LIG     1      90.237  92.980  89.840  1.00  0.00     0.217 HD
ENDBRANCH   5  19
BRANCH   3  21
HETATM   21  O   LIG     1      87.617  91.011  94.857  1.00  0.00    -0.359 OA
HETATM   22  H   LIG     1      88.243  90.525  95.372  1.00  0.00     0.217 HD
ENDBRANCH   3  21
TORSDOF 5
ENDMDL
MODEL 9
REMARK VINA RESULT:       0.0      6.299      8.515
REMARK  5 active torsions:
REMARK  status: ('A' for Active; 'I' for Inactive)
REMARK    1  A    between atoms: C_2  and  C_8 
REMARK    2  A    between atoms: C_3  and  O_21 
REMARK    3  A    between atoms: C_5  and  O_19 
REMARK    4  A    between atoms: C_9  and  O_15 
REMARK    5  A    between atoms: C_12  and  O_17 
ROOT
HETATM    1  C   LIG     1      87.867  88.414  91.244  1.00  0.00     0.026 A 
HETATM    2  C   LIG     1      87.869  88.894  89.916  1.00  0.00     0.026 A 
HETATM    3  C   LIG     1      87.159  89.082  92.260  1.00  0.00     0.086 A 
HETATM    4  C   LIG     1      86.433  90.255  91.959  1.00  0.00     0.002 A 
HETATM    5  C   LIG     1      87.137  90.071  89.622  1.00  0.00     0.089 A 
HETATM    6  C   LIG     1      86.427  90.743  90.637  1.00  0.00     0.022 A 
HETATM    7  C   LIG     1      85.663  90.990  93.041  1.00  0.00     0.033 C 
ENDROOT
BRANCH   2   8
HETATM    8  C   LIG     1      88.628  88.170  88.877  1.00  0.00     0.026 A 
HETATM    9  C   LIG     1      89.988  88.485  88.658  1.00  0.00     0.026 A 
HETATM   10  C   LIG     1      90.743  87.811  87.679  1.00  0.00     0.086 A 
HETATM   11  C   LIG     1      90.143  86.800  86.900  1.00  0.00     0.002 A 
HETATM   12  C   LIG     1      90.942  86.061  85.841  1.00  0.00     0.033 C 
HETATM   13  C   LIG     1      88.788  86.476  87.111  1.00  0.00     0.022 A 
HETATM   14  C   LIG     1      88.034  87.155  88.090  1.00  0.00     0.089 A 
BRANCH  10  15
HETATM   15  O   LIG     1      92.054  88.144  87.496  1.00  0.00    -0.359 OA
HETATM   16  H   LIG     1      92.372  88.768  88.131  1.00  0.00     0.217 HD
ENDBRANCH  10  15
BRANCH  14  17
HETATM   17  O   LIG     1      86.720  86.820  88.257  1.00  0.00    -0.359 OA
HETATM   18  H   LIG     1      86.226  86.834  87.451  1.00  0.00     0.217 HD
ENDBRANCH  14  17
ENDBRANCH   2   8
BRANCH   5  19
HETATM   19  O   LIG     1      87.099  90.570  88.351  1.00  0.00    -0.359 OA
HETATM   20  H   LIG     1      86.993  91.509  88.322  1.00  0.00     0.217 HD
ENDBRANCH   5  19
BRANCH   3  21
HETATM   21  O   LIG     1      87.185  88.584  93.531  1.00  0.00    -0.359 OA
HETATM   22  H   LIG     1      87.637  89.148  94.140  1.00  0.00     0.217 HD
ENDBRANCH   3  21
TORSDOF 5
ENDMDL
