MODEL 1
REMARK VINA RESULT:      -0.0      0.000      0.000
REMARK  3 active torsions:
REMARK  status: ('A' for Active; 'I' for Inactive)
REMARK    1  A    between atoms: C_7  and  C_16 
REMARK    2  A    between atoms: C_7  and  C_10 
REMARK    3  A    between atoms: C_16  and  C_17 
ROOT
HETATM    1  O   LIG     1      99.996  88.387  85.229  1.00  0.00    -0.247 OA
HETATM    2  H   LIG     1      99.500  90.138  87.119  1.00  0.00     0.173 HD
HETATM    3  N   LIG     1      99.023  89.249  87.107  1.00  0.00    -0.277 N 
HETATM    4  N   LIG     1      98.403  87.291  86.452  1.00  0.00    -0.319 N 
HETATM    5  H   LIG     1      98.346  86.456  85.888  1.00  0.00     0.166 HD
HETATM    6  O   LIG     1      97.690  89.589  88.925  1.00  0.00    -0.270 OA
HETATM    7  C   LIG     1      97.619  87.473  87.671  1.00  0.00     0.161 A 
HETATM    8  C   LIG     1      98.102  88.892  87.999  1.00  0.00     0.260 A 
HETATM    9  C   LIG     1      99.218  88.316  86.177  1.00  0.00     0.324 A 
ENDROOT
BRANCH   7  10
HETATM   10  C   LIG     1      96.108  87.441  87.299  1.00  0.00     0.060 C 
BRANCH  10  11
HETATM   11  C   LIG     1      95.695  86.404  86.263  1.00  0.00    -0.019 A 
HETATM   12  C   LIG     1      95.613  85.041  86.619  1.00  0.00    -0.004 A 
HETATM   13  C   LIG     1      95.237  84.080  85.660  1.00  0.00    -0.000 A 
HETATM   14  C   LIG     1      94.936  84.478  84.344  1.00  0.00    -0.000 A 
HETATM   15  C   LIG     1      95.009  85.837  83.987  1.00  0.00    -0.000 A 
HETATM   16  C   LIG     1      95.384  86.799  84.945  1.00  0.00    -0.004 A 
ENDBRANCH  10  11
ENDBRANCH   7  10
BRANCH   7  17
HETATM   17  C   LIG     1      98.017  86.466  88.771  1.00  0.00     0.024 A 
HETATM   18  C   LIG     1      99.246  85.764  88.710  1.00  0.00     0.097 A 
HETATM   19  N   LIG     1      99.646  84.859  89.627  1.00  0.00    -0.243 NA
HETATM   20  C   LIG     1      98.823  84.602  90.664  1.00  0.00     0.099 A 
HETATM   21  C   LIG     1      97.574  85.228  90.827  1.00  0.00     0.020 A 
HETATM   22  C   LIG     1      97.167  86.171  89.865  1.00  0.00     0.001 A 
ENDBRANCH   7  17
TORSDOF 3
ENDMDL
MODEL 2
REMARK VINA RESULT:      -0.0      9.034     11.105
REMARK  3 active torsions:
REMARK  status: ('A' for Active; 'I' for Inactive)
REMARK    1  A    between atoms: C_7  and  C_16 
REMARK    2  A    between atoms: C_7  and  C_10 
REMARK    3  A    between atoms: C_16  and  C_17 
ROOT
HETATM    1  O   LIG     1      90.867  95.061  88.567  1.00  0.00    -0.247 OA
HETATM    2  H   LIG     1      89.665  93.516  86.820  1.00  0.00     0.173 HD
HETATM    3  N   LIG     1      90.504  94.018  86.568  1.00  0.00    -0.277 N 
HETATM    4  N   LIG     1      92.197  95.343  86.726  1.00  0.00    -0.319 N 
HETATM    5  H   LIG     1      92.850  95.999  87.128  1.00  0.00     0.166 HD
HETATM    6  O   LIG     1      90.616  93.359  84.388  1.00  0.00    -0.270 OA
HETATM    7  C   LIG     1      92.320  94.845  85.359  1.00  0.00     0.161 A 
HETATM    8  C   LIG     1      91.055  93.976  85.358  1.00  0.00     0.260 A 
HETATM    9  C   LIG     1      91.162  94.825  87.398  1.00  0.00     0.324 A 
ENDROOT
BRANCH   7  10
HETATM   10  C   LIG     1      92.204  96.049  84.380  1.00  0.00     0.060 C 
BRANCH  10  11
HETATM   11  C   LIG     1      92.916  97.327  84.803  1.00  0.00    -0.019 A 
HETATM   12  C   LIG     1      94.321  97.419  84.713  1.00  0.00    -0.004 A 
HETATM   13  C   LIG     1      94.981  98.598  85.110  1.00  0.00    -0.000 A 
HETATM   14  C   LIG     1      94.238  99.693  85.592  1.00  0.00    -0.000 A 
HETATM   15  C   LIG     1      92.836  99.609  85.675  1.00  0.00    -0.000 A 
HETATM   16  C   LIG     1      92.175  98.430  85.278  1.00  0.00    -0.004 A 
ENDBRANCH  10  11
ENDBRANCH   7  10
BRANCH   7  17
HETATM   17  C   LIG     1      93.595  93.997  85.165  1.00  0.00     0.024 A 
HETATM   18  C   LIG     1      94.295  93.463  86.275  1.00  0.00     0.097 A 
HETATM   19  N   LIG     1      95.423  92.730  86.176  1.00  0.00    -0.243 NA
HETATM   20  C   LIG     1      95.919  92.495  84.945  1.00  0.00     0.099 A 
HETATM   21  C   LIG     1      95.320  92.981  83.769  1.00  0.00     0.020 A 
HETATM   22  C   LIG     1      94.143  93.744  83.883  1.00  0.00     0.001 A 
ENDBRANCH   7  17
TORSDOF 3
ENDMDL
MODEL 3
REMARK VINA RESULT:      -0.0      7.803      9.661
REMARK  3 active torsions:
REMARK  status: ('A' for Active; 'I' for Inactive)
REMARK    1  A    between atoms: C_7  and  C_16 
REMARK    2  A    between atoms: C_7  and  C_10 
REMARK    3  A    between atoms: C_16  and  C_17 
ROOT
HETATM    1  O   LIG     1      88.240  92.039  81.863  1.00  0.00    -0.247 OA
HETATM    2  H   LIG     1      90.351  92.686  80.447  1.00  0.00     0.173 HD
HETATM    3  N   LIG     1      90.448  92.410  81.413  1.00  0.00    -0.277 N 
HETATM    4  N   LIG     1      89.909  91.800  83.409  1.00  0.00    -0.319 N 
HETATM    5  H   LIG     1      89.333  91.531  84.194  1.00  0.00     0.166 HD
HETATM    6  O   LIG     1      92.703  92.691  81.592  1.00  0.00    -0.270 OA
HETATM    7  C   LIG     1      91.364  91.890  83.494  1.00  0.00     0.161 A 
HETATM    8  C   LIG     1      91.610  92.373  82.059  1.00  0.00     0.260 A 
HETATM    9  C   LIG     1      89.422  92.076  82.194  1.00  0.00     0.324 A 
ENDROOT
BRANCH   7  10
HETATM   10  C   LIG     1      91.734  92.975  84.548  1.00  0.00     0.060 C 
BRANCH  10  11
HETATM   11  C   LIG     1      90.884  92.998  85.811  1.00  0.00    -0.019 A 
HETATM   12  C   LIG     1      91.059  92.008  86.802  1.00  0.00    -0.004 A 
HETATM   13  C   LIG     1      90.269  92.025  87.968  1.00  0.00    -0.000 A 
HETATM   14  C   LIG     1      89.305  93.035  88.152  1.00  0.00    -0.000 A 
HETATM   15  C   LIG     1      89.133  94.029  87.170  1.00  0.00    -0.000 A 
HETATM   16  C   LIG     1      89.923  94.013  86.004  1.00  0.00    -0.004 A 
ENDBRANCH  10  11
ENDBRANCH   7  10
BRANCH   7  17
HETATM   17  C   LIG     1      92.015  90.514  83.753  1.00  0.00     0.024 A 
HETATM   18  C   LIG     1      91.302  89.313  83.522  1.00  0.00     0.097 A 
HETATM   19  N   LIG     1      91.804  88.080  83.744  1.00  0.00    -0.243 NA
HETATM   20  C   LIG     1      93.061  87.986  84.221  1.00  0.00     0.099 A 
HETATM   21  C   LIG     1      93.863  89.107  84.500  1.00  0.00     0.020 A 
HETATM   22  C   LIG     1      93.330  90.388  84.265  1.00  0.00     0.001 A 
ENDBRANCH   7  17
TORSDOF 3
ENDMDL
MODEL 4
REMARK VINA RESULT:      -0.0      9.564     12.237
REMARK  3 active torsions:
REMARK  status: ('A' for Active; 'I' for Inactive)
REMARK    1  A    between atoms: C_7  and  C_16 
REMARK    2  A    between atoms: C_7  and  C_10 
REMARK    3  A    between atoms: C_16  and  C_17 
ROOT
HETATM    1  O   LIG     1      96.797  89.623  94.335  1.00  0.00    -0.247 OA
HETATM    2  H   LIG     1      97.070  87.164  95.206  1.00  0.00     0.173 HD
HETATM    3  N   LIG     1      96.712  87.885  95.814  1.00  0.00    -0.277 N 
HETATM    4  N   LIG     1      96.093  89.832  96.502  1.00  0.00    -0.319 N 
HETATM    5  H   LIG     1      95.900  90.823  96.489  1.00  0.00     0.166 HD
HETATM    6  O   LIG     1      96.485  86.620  97.697  1.00  0.00    -0.270 OA
HETATM    7  C   LIG     1      95.860  88.999  97.678  1.00  0.00     0.161 A 
HETATM    8  C   LIG     1      96.379  87.683  97.086  1.00  0.00     0.260 A 
HETATM    9  C   LIG     1      96.553  89.155  95.444  1.00  0.00     0.324 A 
ENDROOT
BRANCH   7  10
HETATM   10  C   LIG     1      96.761  89.515  98.838  1.00  0.00     0.060 C 
BRANCH  10  11
HETATM   11  C   LIG     1      96.878  91.027  98.973  1.00  0.00    -0.019 A 
HETATM   12  C   LIG     1      95.806  91.776  99.504  1.00  0.00    -0.004 A 
HETATM   13  C   LIG     1      95.911  93.176  99.624  1.00  0.00    -0.000 A 
HETATM   14  C   LIG     1      97.090  93.832  99.220  1.00  0.00    -0.000 A 
HETATM   15  C   LIG     1      98.165  93.088  98.699  1.00  0.00    -0.000 A 
HETATM   16  C   LIG     1      98.061  91.688  98.579  1.00  0.00    -0.004 A 
ENDBRANCH  10  11
ENDBRANCH   7  10
BRANCH   7  17
HETATM   17  C   LIG     1      94.361  88.913  98.037  1.00  0.00     0.024 A 
HETATM   18  C   LIG     1      93.362  89.263  97.097  1.00  0.00     0.097 A 
HETATM   19  N   LIG     1      92.037  89.227  97.351  1.00  0.00    -0.243 NA
HETATM   20  C   LIG     1      91.639  88.838  98.579  1.00  0.00     0.099 A 
HETATM   21  C   LIG     1      92.537  88.477  99.600  1.00  0.00     0.020 A 
HETATM   22  C   LIG     1      93.917  88.518  99.323  1.00  0.00     0.001 A 
ENDBRANCH   7  17
TORSDOF 3
ENDMDL
MODEL 5
REMARK VINA RESULT:      -0.0      2.904      4.802
REMARK  3 active torsions:
REMARK  status: ('A' for Active; 'I' for Inactive)
REMARK    1  A    between atoms: C_7  and  C_16 
REMARK    2  A    between atoms: C_7  and  C_10 
REMARK    3  A    between atoms: C_16  and  C_17 
ROOT
HETATM    1  O   LIG     1      92.865  86.652  88.706  1.00  0.00    -0.247 OA
HETATM    2  H   LIG     1      92.825  84.728  86.923  1.00  0.00     0.173 HD
HETATM    3  N   LIG     1      93.701  85.136  87.217  1.00  0.00    -0.277 N 
HETATM    4  N   LIG     1      95.092  86.430  88.233  1.00  0.00    -0.319 N 
HETATM    5  H   LIG     1      95.436  87.158  88.843  1.00  0.00     0.166 HD
HETATM    6  O   LIG     1      95.075  83.936  85.850  1.00  0.00    -0.270 OA
HETATM    7  C   LIG     1      95.978  85.595  87.426  1.00  0.00     0.161 A 
HETATM    8  C   LIG     1      94.884  84.775  86.729  1.00  0.00     0.260 A 
HETATM    9  C   LIG     1      93.797  86.119  88.111  1.00  0.00     0.324 A 
ENDROOT
BRANCH   7  10
HETATM   10  C   LIG     1      96.749  86.509  86.430  1.00  0.00     0.060 C 
BRANCH  10  11
HETATM   11  C   LIG     1      97.237  87.841  86.983  1.00  0.00    -0.019 A 
HETATM   12  C   LIG     1      98.350  87.885  87.848  1.00  0.00    -0.004 A 
HETATM   13  C   LIG     1      98.798  89.117  88.365  1.00  0.00    -0.000 A 
HETATM   14  C   LIG     1      98.138  90.310  88.013  1.00  0.00    -0.000 A 
HETATM   15  C   LIG     1      97.033  90.272  87.143  1.00  0.00    -0.000 A 
HETATM   16  C   LIG     1      96.585  89.041  86.625  1.00  0.00    -0.004 A 
ENDBRANCH  10  11
ENDBRANCH   7  10
BRANCH   7  17
HETATM   17  C   LIG     1      96.889  84.706  88.299  1.00  0.00     0.024 A 
HETATM   18  C   LIG     1      96.588  84.466  89.663  1.00  0.00     0.097 A 
HETATM   19  N   LIG     1      97.350  83.714  90.484  1.00  0.00    -0.243 NA
HETATM   20  C   LIG     1      98.472  83.163  89.979  1.00  0.00     0.099 A 
HETATM   21  C   LIG     1      98.881  83.339  88.645  1.00  0.00     0.020 A 
HETATM   22  C   LIG     1      98.078  84.124  87.796  1.00  0.00     0.001 A 
ENDBRANCH   7  17
TORSDOF 3
ENDMDL
MODEL 6
REMARK VINA RESULT:      -0.0      5.150      7.460
REMARK  3 active torsions:
REMARK  status: ('A' for Active; 'I' for Inactive)
REMARK    1  A    between atoms: C_7  and  C_16 
REMARK    2  A    between atoms: C_7  and  C_10 
REMARK    3  A    between atoms: C_16  and  C_17 
ROOT
HETATM    1  O   LIG     1      93.052  89.012  88.605  1.00  0.00    -0.247 OA
HETATM    2  H   LIG     1      94.744  88.556  86.653  1.00  0.00     0.173 HD
HETATM    3  N   LIG     1      93.987  87.913  86.835  1.00  0.00    -0.277 N 
HETATM    4  N   LIG     1      92.265  87.028  87.782  1.00  0.00    -0.319 N 
HETATM    5  H   LIG     1      91.501  86.902  88.430  1.00  0.00     0.166 HD
HETATM    6  O   LIG     1      94.500  86.370  85.237  1.00  0.00    -0.270 OA
HETATM    7  C   LIG     1      92.539  86.089  86.697  1.00  0.00     0.161 A 
HETATM    8  C   LIG     1      93.789  86.790  86.149  1.00  0.00     0.260 A 
HETATM    9  C   LIG     1      93.096  88.076  87.812  1.00  0.00     0.324 A 
ENDROOT
BRANCH   7  10
HETATM   10  C   LIG     1      92.871  84.700  87.315  1.00  0.00     0.060 C 
BRANCH  10  11
HETATM   11  C   LIG     1      92.021  84.276  88.506  1.00  0.00    -0.019 A 
HETATM   12  C   LIG     1      90.692  83.846  88.310  1.00  0.00    -0.004 A 
HETATM   13  C   LIG     1      89.903  83.460  89.412  1.00  0.00    -0.000 A 
HETATM   14  C   LIG     1      90.442  83.497  90.712  1.00  0.00    -0.000 A 
HETATM   15  C   LIG     1      91.771  83.916  90.911  1.00  0.00    -0.000 A 
HETATM   16  C   LIG     1      92.560  84.302  89.810  1.00  0.00    -0.004 A 
ENDBRANCH  10  11
ENDBRANCH   7  10
BRANCH   7  17
HETATM   17  C   LIG     1      91.400  86.059  85.656  1.00  0.00     0.024 A 
HETATM   18  C   LIG     1      90.444  87.102  85.586  1.00  0.00     0.097 A 
HETATM   19  N   LIG     1      89.416  87.129  84.714  1.00  0.00    -0.243 NA
HETATM   20  C   LIG     1      89.284  86.094  83.859  1.00  0.00     0.099 A 
HETATM   21  C   LIG     1      90.162  84.996  83.841  1.00  0.00     0.020 A 
HETATM   22  C   LIG     1      91.233  84.979  84.754  1.00  0.00     0.001 A 
ENDBRANCH   7  17
TORSDOF 3
ENDMDL
MODEL 7
REMARK VINA RESULT:      -0.0     12.298     13.279
REMARK  3 active torsions:
REMARK  status: ('A' for Active; 'I' for Inactive)
REMARK    1  A    between atoms: C_7  and  C_16 
REMARK    2  A    between atoms: C_7  and  C_10 
REMARK    3  A    between atoms: C_16  and  C_17 
ROOT
HETATM    1  O   LIG     1      84.490  90.769  89.964  1.00  0.00    -0.247 OA
HETATM    2  H   LIG     1      86.751  91.200  91.221  1.00  0.00     0.173 HD
HETATM    3  N   LIG     1      86.323  90.286  91.238  1.00  0.00    -0.277 N 
HETATM    4  N   LIG     1      84.892  88.713  90.885  1.00  0.00    -0.319 N 
HETATM    5  H   LIG     1      84.063  88.246  90.547  1.00  0.00     0.166 HD
HETATM    6  O   LIG     1      87.841  89.256  92.591  1.00  0.00    -0.270 OA
HETATM    7  C   LIG     1      85.914  88.031  91.673  1.00  0.00     0.161 A 
HETATM    8  C   LIG     1      86.825  89.246  91.897  1.00  0.00     0.260 A 
HETATM    9  C   LIG     1      85.174  89.996  90.629  1.00  0.00     0.324 A 
ENDROOT
BRANCH   7  10
HETATM   10  C   LIG     1      85.268  87.532  92.998  1.00  0.00     0.060 C 
BRANCH  10  11
HETATM   11  C   LIG     1      83.866  86.948  92.881  1.00  0.00    -0.019 A 
HETATM   12  C   LIG     1      83.678  85.662  92.331  1.00  0.00    -0.004 A 
HETATM   13  C   LIG     1      82.380  85.124  92.217  1.00  0.00    -0.000 A 
HETATM   14  C   LIG     1      81.268  85.867  92.658  1.00  0.00    -0.000 A 
HETATM   15  C   LIG     1      81.453  87.145  93.215  1.00  0.00    -0.000 A 
HETATM   16  C   LIG     1      82.749  87.684  93.330  1.00  0.00    -0.004 A 
ENDBRANCH  10  11
ENDBRANCH   7  10
BRANCH   7  17
HETATM   17  C   LIG     1      86.626  86.926  90.865  1.00  0.00     0.024 A 
HETATM   18  C   LIG     1      86.554  86.892  89.450  1.00  0.00     0.097 A 
HETATM   19  N   LIG     1      87.137  85.945  88.686  1.00  0.00    -0.243 NA
HETATM   20  C   LIG     1      87.827  84.967  89.306  1.00  0.00     0.099 A 
HETATM   21  C   LIG     1      87.959  84.888  90.704  1.00  0.00     0.020 A 
HETATM   22  C   LIG     1      87.348  85.880  91.492  1.00  0.00     0.001 A 
ENDBRANCH   7  17
TORSDOF 3
ENDMDL
MODEL 8
REMARK VINA RESULT:      -0.0     15.073     16.349
REMARK  3 active torsions:
REMARK  status: ('A' for Active; 'I' for Inactive)
REMARK    1  A    between atoms: C_7  and  C_16 
REMARK    2  A    between atoms: C_7  and  C_10 
REMARK    3  A    between atoms: C_16  and  C_17 
ROOT
HETATM    1  O   LIG     1      82.491  96.803  90.325  1.00  0.00    -0.247 OA
HETATM    2  H   LIG     1      80.302  95.948  89.159  1.00  0.00     0.173 HD
HETATM    3  N   LIG     1      81.063  95.312  89.350  1.00  0.00    -0.277 N 
HETATM    4  N   LIG     1      82.989  94.594  89.997  1.00  0.00    -0.319 N 
HETATM    5  H   LIG     1      83.921  94.604  90.386  1.00  0.00     0.166 HD
HETATM    6  O   LIG     1      80.146  93.444  88.418  1.00  0.00    -0.270 OA
HETATM    7  C   LIG     1      82.362  93.379  89.485  1.00  0.00     0.161 A 
HETATM    8  C   LIG     1      81.050  94.023  89.018  1.00  0.00     0.260 A 
HETATM    9  C   LIG     1      82.204  95.676  89.932  1.00  0.00     0.324 A 
ENDROOT
BRANCH   7  10
HETATM   10  C   LIG     1      83.210  92.848  88.293  1.00  0.00     0.060 C 
BRANCH  10  11
HETATM   11  C   LIG     1      84.722  92.925  88.460  1.00  0.00    -0.019 A 
HETATM   12  C   LIG     1      85.389  92.017  89.309  1.00  0.00    -0.004 A 
HETATM   13  C   LIG     1      86.787  92.091  89.469  1.00  0.00    -0.000 A 
HETATM   14  C   LIG     1      87.524  93.070  88.775  1.00  0.00    -0.000 A 
HETATM   15  C   LIG     1      86.864  93.972  87.920  1.00  0.00    -0.000 A 
HETATM   16  C   LIG     1      85.466  93.898  87.759  1.00  0.00    -0.004 A 
ENDBRANCH  10  11
ENDBRANCH   7  10
BRANCH   7  17
HETATM   17  C   LIG     1      82.122  92.338  90.599  1.00  0.00     0.024 A 
HETATM   18  C   LIG     1      82.141  92.711  91.966  1.00  0.00     0.097 A 
HETATM   19  N   LIG     1      81.956  91.850  92.988  1.00  0.00    -0.243 NA
HETATM   20  C   LIG     1      81.746  90.552  92.690  1.00  0.00     0.099 A 
HETATM   21  C   LIG     1      81.716  90.060  91.374  1.00  0.00     0.020 A 
HETATM   22  C   LIG     1      81.909  90.967  90.315  1.00  0.00     0.001 A 
ENDBRANCH   7  17
TORSDOF 3
ENDMDL
MODEL 9
REMARK VINA RESULT:      -0.0      9.524     11.484
REMARK  3 active torsions:
REMARK  status: ('A' for Active; 'I' for Inactive)
REMARK    1  A    between atoms: C_7  and  C_16 
REMARK    2  A    between atoms: C_7  and  C_10 
REMARK    3  A    between atoms: C_16  and  C_17 
ROOT
HETATM    1  O   LIG     1      91.550  90.320  92.692  1.00  0.00    -0.247 OA
HETATM    2  H   LIG     1      89.406  91.560  93.558  1.00  0.00     0.173 HD
HETATM    3  N   LIG     1      90.152  92.076  93.115  1.00  0.00    -0.277 N 
HETATM    4  N   LIG     1      92.043  92.492  92.167  1.00  0.00    -0.319 N 
HETATM    5  H   LIG     1      92.957  92.333  91.769  1.00  0.00     0.166 HD
HETATM    6  O   LIG     1      89.261  94.162  93.338  1.00  0.00    -0.270 OA
HETATM    7  C   LIG     1      91.428  93.815  92.226  1.00  0.00     0.161 A 
HETATM    8  C   LIG     1      90.143  93.396  92.952  1.00  0.00     0.260 A 
HETATM    9  C   LIG     1      91.271  91.516  92.658  1.00  0.00     0.324 A 
ENDROOT
BRANCH   7  10
HETATM   10  C   LIG     1      92.322  94.739  93.103  1.00  0.00     0.060 C 
BRANCH  10  11
HETATM   11  C   LIG     1      93.825  94.595  92.911  1.00  0.00    -0.019 A 
HETATM   12  C   LIG     1      94.447  95.124  91.760  1.00  0.00    -0.004 A 
HETATM   13  C   LIG     1      95.837  94.986  91.579  1.00  0.00    -0.000 A 
HETATM   14  C   LIG     1      96.612  94.323  92.550  1.00  0.00    -0.000 A 
HETATM   15  C   LIG     1      95.998  93.801  93.704  1.00  0.00    -0.000 A 
HETATM   16  C   LIG     1      94.608  93.940  93.886  1.00  0.00    -0.004 A 
ENDBRANCH  10  11
ENDBRANCH   7  10
BRANCH   7  17
HETATM   17  C   LIG     1      91.131  94.378  90.820  1.00  0.00     0.024 A 
HETATM   18  C   LIG     1      91.095  93.531  89.685  1.00  0.00     0.097 A 
HETATM   19  N   LIG     1      90.858  93.960  88.428  1.00  0.00    -0.243 NA
HETATM   20  C   LIG     1      90.649  95.279  88.238  1.00  0.00     0.099 A 
HETATM   21  C   LIG     1      90.672  96.219  89.284  1.00  0.00     0.020 A 
HETATM   22  C   LIG     1      90.919  95.760  90.592  1.00  0.00     0.001 A 
ENDBRANCH   7  17
TORSDOF 3
ENDMDL
