MODEL 1
REMARK VINA RESULT:      -0.0      0.000      0.000
REMARK  3 active torsions:
REMARK  status: ('A' for Active; 'I' for Inactive)
REMARK    1  A    between atoms: C_7  and  C_16 
REMARK    2  A    between atoms: C_7  and  C_10 
REMARK    3  A    between atoms: C_16  and  C_17 
ROOT
HETATM    1  O   LIG     1      84.317  88.594  92.938  1.00  0.00    -0.247 OA
HETATM    2  H   LIG     1      86.267  88.090  91.258  1.00  0.00     0.173 HD
HETATM    3  N   LIG     1      86.462  88.500  92.160  1.00  0.00    -0.277 N 
HETATM    4  N   LIG     1      86.130  89.344  94.115  1.00  0.00    -0.319 N 
HETATM    5  H   LIG     1      85.638  89.668  94.935  1.00  0.00     0.166 HD
HETATM    6  O   LIG     1      88.715  88.741  91.912  1.00  0.00    -0.270 OA
HETATM    7  C   LIG     1      87.584  89.410  93.992  1.00  0.00     0.161 A 
HETATM    8  C   LIG     1      87.680  88.842  92.569  1.00  0.00     0.260 A 
HETATM    9  C   LIG     1      85.523  88.789  93.060  1.00  0.00     0.324 A 
ENDROOT
BRANCH   7  10
HETATM   10  C   LIG     1      88.020  90.903  94.057  1.00  0.00     0.060 C 
BRANCH  10  11
HETATM   11  C   LIG     1      87.292  91.770  95.075  1.00  0.00    -0.019 A 
HETATM   12  C   LIG     1      87.586  91.648  96.450  1.00  0.00    -0.004 A 
HETATM   13  C   LIG     1      86.909  92.445  97.393  1.00  0.00    -0.000 A 
HETATM   14  C   LIG     1      85.938  93.371  96.966  1.00  0.00    -0.000 A 
HETATM   15  C   LIG     1      85.648  93.503  95.595  1.00  0.00    -0.000 A 
HETATM   16  C   LIG     1      86.325  92.707  94.651  1.00  0.00    -0.004 A 
ENDBRANCH  10  11
ENDBRANCH   7  10
BRANCH   7  17
HETATM   17  C   LIG     1      88.293  88.502  95.018  1.00  0.00     0.024 A 
HETATM   18  C   LIG     1      87.595  87.465  95.683  1.00  0.00     0.097 A 
HETATM   19  N   LIG     1      88.150  86.648  96.602  1.00  0.00    -0.243 NA
HETATM   20  C   LIG     1      89.449  86.834  96.913  1.00  0.00     0.099 A 
HETATM   21  C   LIG     1      90.242  87.838  96.329  1.00  0.00     0.020 A 
HETATM   22  C   LIG     1      89.654  88.684  95.370  1.00  0.00     0.001 A 
ENDBRANCH   7  17
TORSDOF 3
ENDMDL
MODEL 2
REMARK VINA RESULT:      -0.0      7.006      9.759
REMARK  3 active torsions:
REMARK  status: ('A' for Active; 'I' for Inactive)
REMARK    1  A    between atoms: C_7  and  C_16 
REMARK    2  A    between atoms: C_7  and  C_10 
REMARK    3  A    between atoms: C_16  and  C_17 
ROOT
HETATM    1  O   LIG     1      91.511  92.942  85.693  1.00  0.00    -0.247 OA
HETATM    2  H   LIG     1      90.538  92.194  83.375  1.00  0.00     0.173 HD
HETATM    3  N   LIG     1      90.042  91.987  84.229  1.00  0.00    -0.277 N 
HETATM    4  N   LIG     1      89.593  91.871  86.334  1.00  0.00    -0.319 N 
HETATM    5  H   LIG     1      89.697  91.987  87.332  1.00  0.00     0.166 HD
HETATM    6  O   LIG     1      88.309  90.828  83.307  1.00  0.00    -0.270 OA
HETATM    7  C   LIG     1      88.437  91.212  85.734  1.00  0.00     0.161 A 
HETATM    8  C   LIG     1      88.896  91.312  84.273  1.00  0.00     0.260 A 
HETATM    9  C   LIG     1      90.477  92.329  85.440  1.00  0.00     0.324 A 
ENDROOT
BRANCH   7  10
HETATM   10  C   LIG     1      88.391  89.738  86.234  1.00  0.00     0.060 C 
BRANCH  10  11
HETATM   11  C   LIG     1      88.729  89.518  87.702  1.00  0.00    -0.019 A 
HETATM   12  C   LIG     1      87.796  89.863  88.703  1.00  0.00    -0.004 A 
HETATM   13  C   LIG     1      88.110  89.665  90.062  1.00  0.00    -0.000 A 
HETATM   14  C   LIG     1      89.356  89.117  90.425  1.00  0.00    -0.000 A 
HETATM   15  C   LIG     1      90.285  88.763  89.429  1.00  0.00    -0.000 A 
HETATM   16  C   LIG     1      89.971  88.960  88.070  1.00  0.00    -0.004 A 
ENDBRANCH  10  11
ENDBRANCH   7  10
BRANCH   7  17
HETATM   17  C   LIG     1      87.131  91.999  85.976  1.00  0.00     0.024 A 
HETATM   18  C   LIG     1      87.160  93.360  86.369  1.00  0.00     0.097 A 
HETATM   19  N   LIG     1      86.059  94.100  86.613  1.00  0.00    -0.243 NA
HETATM   20  C   LIG     1      84.855  93.506  86.482  1.00  0.00     0.099 A 
HETATM   21  C   LIG     1      84.700  92.158  86.110  1.00  0.00     0.020 A 
HETATM   22  C   LIG     1      85.855  91.396  85.857  1.00  0.00     0.001 A 
ENDBRANCH   7  17
TORSDOF 3
ENDMDL
MODEL 3
REMARK VINA RESULT:       0.0      9.196     11.735
REMARK  3 active torsions:
REMARK  status: ('A' for Active; 'I' for Inactive)
REMARK    1  A    between atoms: C_7  and  C_16 
REMARK    2  A    between atoms: C_7  and  C_10 
REMARK    3  A    between atoms: C_16  and  C_17 
ROOT
HETATM    1  O   LIG     1      83.287  89.760  83.207  1.00  0.00    -0.247 OA
HETATM    2  H   LIG     1      85.543  89.713  81.869  1.00  0.00     0.173 HD
HETATM    3  N   LIG     1      85.314  88.970  82.514  1.00  0.00    -0.277 N 
HETATM    4  N   LIG     1      84.236  87.833  83.993  1.00  0.00    -0.319 N 
HETATM    5  H   LIG     1      83.507  87.575  84.643  1.00  0.00     0.166 HD
HETATM    6  O   LIG     1      87.235  87.763  82.288  1.00  0.00    -0.270 OA
HETATM    7  C   LIG     1      85.425  87.012  83.776  1.00  0.00     0.161 A 
HETATM    8  C   LIG     1      86.115  87.939  82.767  1.00  0.00     0.260 A 
HETATM    9  C   LIG     1      84.192  88.931  83.231  1.00  0.00     0.324 A 
ENDROOT
BRANCH   7  10
HETATM   10  C   LIG     1      86.211  86.915  85.116  1.00  0.00     0.060 C 
BRANCH  10  11
HETATM   11  C   LIG     1      85.372  86.741  86.374  1.00  0.00    -0.019 A 
HETATM   12  C   LIG     1      84.775  85.495  86.662  1.00  0.00    -0.004 A 
HETATM   13  C   LIG     1      83.994  85.335  87.823  1.00  0.00    -0.000 A 
HETATM   14  C   LIG     1      83.811  86.418  88.705  1.00  0.00    -0.000 A 
HETATM   15  C   LIG     1      84.412  87.660  88.427  1.00  0.00    -0.000 A 
HETATM   16  C   LIG     1      85.194  87.821  87.266  1.00  0.00    -0.004 A 
ENDBRANCH  10  11
ENDBRANCH   7  10
BRANCH   7  17
HETATM   17  C   LIG     1      85.077  85.645  83.151  1.00  0.00     0.024 A 
HETATM   18  C   LIG     1      83.830  85.426  82.516  1.00  0.00     0.097 A 
HETATM   19  N   LIG     1      83.457  84.252  81.966  1.00  0.00    -0.243 NA
HETATM   20  C   LIG     1      84.323  83.220  82.028  1.00  0.00     0.099 A 
HETATM   21  C   LIG     1      85.585  83.312  82.642  1.00  0.00     0.020 A 
HETATM   22  C   LIG     1      85.964  84.542  83.212  1.00  0.00     0.001 A 
ENDBRANCH   7  17
TORSDOF 3
ENDMDL
MODEL 4
REMARK VINA RESULT:       0.0      4.843      7.275
REMARK  3 active torsions:
REMARK  status: ('A' for Active; 'I' for Inactive)
REMARK    1  A    between atoms: C_7  and  C_16 
REMARK    2  A    between atoms: C_7  and  C_10 
REMARK    3  A    between atoms: C_16  and  C_17 
ROOT
HETATM    1  O   LIG     1      81.793  89.595  88.519  1.00  0.00    -0.247 OA
HETATM    2  H   LIG     1      81.194  87.049  88.721  1.00  0.00     0.173 HD
HETATM    3  N   LIG     1      82.152  87.358  88.804  1.00  0.00    -0.277 N 
HETATM    4  N   LIG     1      83.862  88.670  88.831  1.00  0.00    -0.319 N 
HETATM    5  H   LIG     1      84.403  89.521  88.781  1.00  0.00     0.166 HD
HETATM    6  O   LIG     1      83.118  85.308  89.053  1.00  0.00    -0.270 OA
HETATM    7  C   LIG     1      84.468  87.366  89.085  1.00  0.00     0.161 A 
HETATM    8  C   LIG     1      83.181  86.536  88.989  1.00  0.00     0.260 A 
HETATM    9  C   LIG     1      82.531  88.631  88.706  1.00  0.00     0.324 A 
ENDROOT
BRANCH   7  10
HETATM   10  C   LIG     1      85.459  87.046  87.929  1.00  0.00     0.060 C 
BRANCH  10  11
HETATM   11  C   LIG     1      86.309  88.208  87.435  1.00  0.00    -0.019 A 
HETATM   12  C   LIG     1      87.395  88.671  88.207  1.00  0.00    -0.004 A 
HETATM   13  C   LIG     1      88.178  89.751  87.753  1.00  0.00    -0.000 A 
HETATM   14  C   LIG     1      87.882  90.368  86.523  1.00  0.00    -0.000 A 
HETATM   15  C   LIG     1      86.805  89.904  85.745  1.00  0.00    -0.000 A 
HETATM   16  C   LIG     1      86.022  88.824  86.198  1.00  0.00    -0.004 A 
ENDBRANCH  10  11
ENDBRANCH   7  10
BRANCH   7  17
HETATM   17  C   LIG     1      85.095  87.284  90.493  1.00  0.00     0.024 A 
HETATM   18  C   LIG     1      84.749  88.213  91.504  1.00  0.00     0.097 A 
HETATM   19  N   LIG     1      85.272  88.208  92.748  1.00  0.00    -0.243 NA
HETATM   20  C   LIG     1      86.187  87.263  93.045  1.00  0.00     0.099 A 
HETATM   21  C   LIG     1      86.620  86.295  92.123  1.00  0.00     0.020 A 
HETATM   22  C   LIG     1      86.067  86.308  90.828  1.00  0.00     0.001 A 
ENDBRANCH   7  17
TORSDOF 3
ENDMDL
MODEL 5
REMARK VINA RESULT:       0.0      4.320      6.495
REMARK  3 active torsions:
REMARK  status: ('A' for Active; 'I' for Inactive)
REMARK    1  A    between atoms: C_7  and  C_16 
REMARK    2  A    between atoms: C_7  and  C_10 
REMARK    3  A    between atoms: C_16  and  C_17 
ROOT
HETATM    1  O   LIG     1      93.717  89.933  95.859  1.00  0.00    -0.247 OA
HETATM    2  H   LIG     1      92.166  91.842  96.771  1.00  0.00     0.173 HD
HETATM    3  N   LIG     1      91.938  91.365  95.912  1.00  0.00    -0.277 N 
HETATM    4  N   LIG     1      92.102  90.015  94.240  1.00  0.00    -0.319 N 
HETATM    5  H   LIG     1      92.476  89.296  93.636  1.00  0.00     0.166 HD
HETATM    6  O   LIG     1      90.066  92.554  95.384  1.00  0.00    -0.270 OA
HETATM    7  C   LIG     1      90.853  90.713  93.953  1.00  0.00     0.161 A 
HETATM    8  C   LIG     1      90.880  91.659  95.161  1.00  0.00     0.260 A 
HETATM    9  C   LIG     1      92.681  90.392  95.385  1.00  0.00     0.324 A 
ENDROOT
BRANCH   7  10
HETATM   10  C   LIG     1      91.011  91.479  92.606  1.00  0.00     0.060 C 
BRANCH  10  11
HETATM   11  C   LIG     1      91.755  90.743  91.501  1.00  0.00    -0.019 A 
HETATM   12  C   LIG     1      91.126  89.691  90.802  1.00  0.00    -0.004 A 
HETATM   13  C   LIG     1      91.817  89.005  89.783  1.00  0.00    -0.000 A 
HETATM   14  C   LIG     1      93.136  89.373  89.454  1.00  0.00    -0.000 A 
HETATM   15  C   LIG     1      93.763  90.428  90.143  1.00  0.00    -0.000 A 
HETATM   16  C   LIG     1      93.074  91.114  91.162  1.00  0.00    -0.004 A 
ENDBRANCH  10  11
ENDBRANCH   7  10
BRANCH   7  17
HETATM   17  C   LIG     1      89.636  89.765  93.998  1.00  0.00     0.024 A 
HETATM   18  C   LIG     1      89.715  88.502  94.634  1.00  0.00     0.097 A 
HETATM   19  N   LIG     1      88.697  87.620  94.694  1.00  0.00    -0.243 NA
HETATM   20  C   LIG     1      87.531  87.958  94.107  1.00  0.00     0.099 A 
HETATM   21  C   LIG     1      87.334  89.178  93.436  1.00  0.00     0.020 A 
HETATM   22  C   LIG     1      88.403  90.092  93.380  1.00  0.00     0.001 A 
ENDBRANCH   7  17
TORSDOF 3
ENDMDL
MODEL 6
REMARK VINA RESULT:       0.0      6.610      8.215
REMARK  3 active torsions:
REMARK  status: ('A' for Active; 'I' for Inactive)
REMARK    1  A    between atoms: C_7  and  C_16 
REMARK    2  A    between atoms: C_7  and  C_10 
REMARK    3  A    between atoms: C_16  and  C_17 
ROOT
HETATM    1  O   LIG     1      94.876  92.751  94.173  1.00  0.00    -0.247 OA
HETATM    2  H   LIG     1      97.313  91.855  93.804  1.00  0.00     0.173 HD
HETATM    3  N   LIG     1      96.584  91.237  94.128  1.00  0.00    -0.277 N 
HETATM    4  N   LIG     1      94.649  90.561  94.795  1.00  0.00    -0.319 N 
HETATM    5  H   LIG     1      93.672  90.590  95.048  1.00  0.00     0.166 HD
HETATM    6  O   LIG     1      97.854  89.359  94.368  1.00  0.00    -0.270 OA
HETATM    7  C   LIG     1      95.443  89.337  94.857  1.00  0.00     0.161 A 
HETATM    8  C   LIG     1      96.778  89.953  94.420  1.00  0.00     0.260 A 
HETATM    9  C   LIG     1      95.327  91.622  94.344  1.00  0.00     0.324 A 
ENDROOT
BRANCH   7  10
HETATM   10  C   LIG     1      95.481  88.845  96.333  1.00  0.00     0.060 C 
BRANCH  10  11
HETATM   11  C   LIG     1      94.177  88.959  97.111  1.00  0.00    -0.019 A 
HETATM   12  C   LIG     1      93.122  88.057  96.862  1.00  0.00    -0.004 A 
HETATM   13  C   LIG     1      91.912  88.166  97.577  1.00  0.00    -0.000 A 
HETATM   14  C   LIG     1      91.756  89.173  98.548  1.00  0.00    -0.000 A 
HETATM   15  C   LIG     1      92.810  90.070  98.806  1.00  0.00    -0.000 A 
HETATM   16  C   LIG     1      94.019  89.961  98.092  1.00  0.00    -0.004 A 
ENDBRANCH  10  11
ENDBRANCH   7  10
BRANCH   7  17
HETATM   17  C   LIG     1      94.949  88.275  93.852  1.00  0.00     0.024 A 
HETATM   18  C   LIG     1      94.112  88.629  92.766  1.00  0.00     0.097 A 
HETATM   19  N   LIG     1      93.631  87.749  91.863  1.00  0.00    -0.243 NA
HETATM   20  C   LIG     1      93.962  86.450  92.008  1.00  0.00     0.099 A 
HETATM   21  C   LIG     1      94.776  85.976  93.052  1.00  0.00     0.020 A 
HETATM   22  C   LIG     1      95.273  86.902  93.988  1.00  0.00     0.001 A 
ENDBRANCH   7  17
TORSDOF 3
ENDMDL
MODEL 7
REMARK VINA RESULT:       0.0      6.361      9.076
REMARK  3 active torsions:
REMARK  status: ('A' for Active; 'I' for Inactive)
REMARK    1  A    between atoms: C_7  and  C_16 
REMARK    2  A    between atoms: C_7  and  C_10 
REMARK    3  A    between atoms: C_16  and  C_17 
ROOT
HETATM    1  O   LIG     1      85.428  90.920  90.087  1.00  0.00    -0.247 OA
HETATM    2  H   LIG     1      85.055  88.645  91.338  1.00  0.00     0.173 HD
HETATM    3  N   LIG     1      85.031  88.684  90.329  1.00  0.00    -0.277 N 
HETATM    4  N   LIG     1      85.079  89.494  88.332  1.00  0.00    -0.319 N 
HETATM    5  H   LIG     1      85.155  90.171  87.587  1.00  0.00     0.166 HD
HETATM    6  O   LIG     1      84.536  86.493  89.945  1.00  0.00    -0.270 OA
HETATM    7  C   LIG     1      84.856  88.072  88.085  1.00  0.00     0.161 A 
HETATM    8  C   LIG     1      84.790  87.631  89.553  1.00  0.00     0.260 A 
HETATM    9  C   LIG     1      85.205  89.803  89.627  1.00  0.00     0.324 A 
ENDROOT
BRANCH   7  10
HETATM   10  C   LIG     1      83.488  87.903  87.361  1.00  0.00     0.060 C 
BRANCH  10  11
HETATM   11  C   LIG     1      83.168  88.933  86.286  1.00  0.00    -0.019 A 
HETATM   12  C   LIG     1      83.812  88.873  85.033  1.00  0.00    -0.004 A 
HETATM   13  C   LIG     1      83.521  89.830  84.040  1.00  0.00    -0.000 A 
HETATM   14  C   LIG     1      82.580  90.846  84.294  1.00  0.00    -0.000 A 
HETATM   15  C   LIG     1      81.928  90.903  85.540  1.00  0.00    -0.000 A 
HETATM   16  C   LIG     1      82.218  89.948  86.533  1.00  0.00    -0.004 A 
ENDBRANCH  10  11
ENDBRANCH   7  10
BRANCH   7  17
HETATM   17  C   LIG     1      86.043  87.419  87.346  1.00  0.00     0.024 A 
HETATM   18  C   LIG     1      87.312  88.047  87.303  1.00  0.00     0.097 A 
HETATM   19  N   LIG     1      88.385  87.540  86.661  1.00  0.00    -0.243 NA
HETATM   20  C   LIG     1      88.239  86.366  86.014  1.00  0.00     0.099 A 
HETATM   21  C   LIG     1      87.027  85.655  85.976  1.00  0.00     0.020 A 
HETATM   22  C   LIG     1      85.914  86.192  86.650  1.00  0.00     0.001 A 
ENDBRANCH   7  17
TORSDOF 3
ENDMDL
MODEL 8
REMARK VINA RESULT:       0.0      7.758     10.889
REMARK  3 active torsions:
REMARK  status: ('A' for Active; 'I' for Inactive)
REMARK    1  A    between atoms: C_7  and  C_16 
REMARK    2  A    between atoms: C_7  and  C_10 
REMARK    3  A    between atoms: C_16  and  C_17 
ROOT
HETATM    1  O   LIG     1      93.746  84.830  91.494  1.00  0.00    -0.247 OA
HETATM    2  H   LIG     1      94.389  87.265  90.762  1.00  0.00     0.173 HD
HETATM    3  N   LIG     1      93.801  86.693  90.174  1.00  0.00    -0.277 N 
HETATM    4  N   LIG     1      92.695  84.983  89.468  1.00  0.00    -0.319 N 
HETATM    5  H   LIG     1      92.304  84.052  89.445  1.00  0.00     0.166 HD
HETATM    6  O   LIG     1      93.559  88.163  88.449  1.00  0.00    -0.270 OA
HETATM    7  C   LIG     1      92.464  85.961  88.409  1.00  0.00     0.161 A 
HETATM    8  C   LIG     1      93.328  87.085  88.994  1.00  0.00     0.260 A 
HETATM    9  C   LIG     1      93.440  85.447  90.478  1.00  0.00     0.324 A 
ENDROOT
BRANCH   7  10
HETATM   10  C   LIG     1      93.052  85.401  87.081  1.00  0.00     0.060 C 
BRANCH  10  11
HETATM   11  C   LIG     1      92.831  83.917  86.823  1.00  0.00    -0.019 A 
HETATM   12  C   LIG     1      91.559  83.448  86.430  1.00  0.00    -0.004 A 
HETATM   13  C   LIG     1      91.352  82.074  86.197  1.00  0.00    -0.000 A 
HETATM   14  C   LIG     1      92.416  81.165  86.350  1.00  0.00    -0.000 A 
HETATM   15  C   LIG     1      93.688  81.630  86.733  1.00  0.00    -0.000 A 
HETATM   16  C   LIG     1      93.897  83.003  86.965  1.00  0.00    -0.004 A 
ENDBRANCH  10  11
ENDBRANCH   7  10
BRANCH   7  17
HETATM   17  C   LIG     1      90.979  86.372  88.315  1.00  0.00     0.024 A 
HETATM   18  C   LIG     1      90.083  86.127  89.384  1.00  0.00     0.097 A 
HETATM   19  N   LIG     1      88.772  86.446  89.360  1.00  0.00    -0.243 NA
HETATM   20  C   LIG     1      88.282  87.027  88.246  1.00  0.00     0.099 A 
HETATM   21  C   LIG     1      89.071  87.310  87.117  1.00  0.00     0.020 A 
HETATM   22  C   LIG     1      90.437  86.975  87.153  1.00  0.00     0.001 A 
ENDBRANCH   7  17
TORSDOF 3
ENDMDL
MODEL 9
REMARK VINA RESULT:       0.0      4.952      6.370
REMARK  3 active torsions:
REMARK  status: ('A' for Active; 'I' for Inactive)
REMARK    1  A    between atoms: C_7  and  C_16 
REMARK    2  A    between atoms: C_7  and  C_10 
REMARK    3  A    between atoms: C_16  and  C_17 
ROOT
HETATM    1  O   LIG     1      83.609  89.832  89.286  1.00  0.00    -0.247 OA
HETATM    2  H   LIG     1      85.802  88.486  88.777  1.00  0.00     0.173 HD
HETATM    3  N   LIG     1      85.847  89.466  89.014  1.00  0.00    -0.277 N 
HETATM    4  N   LIG     1      85.201  91.459  89.518  1.00  0.00    -0.319 N 
HETATM    5  H   LIG     1      84.582  92.228  89.733  1.00  0.00     0.166 HD
HETATM    6  O   LIG     1      88.101  89.733  88.806  1.00  0.00    -0.270 OA
HETATM    7  C   LIG     1      86.653  91.605  89.477  1.00  0.00     0.161 A 
HETATM    8  C   LIG     1      86.978  90.163  89.065  1.00  0.00     0.260 A 
HETATM    9  C   LIG     1      84.776  90.214  89.278  1.00  0.00     0.324 A 
ENDROOT
BRANCH   7  10
HETATM   10  C   LIG     1      87.017  92.629  88.362  1.00  0.00     0.060 C 
BRANCH  10  11
HETATM   11  C   LIG     1      86.115  93.851  88.254  1.00  0.00    -0.019 A 
HETATM   12  C   LIG     1      86.212  94.889  89.206  1.00  0.00    -0.004 A 
HETATM   13  C   LIG     1      85.373  96.017  89.110  1.00  0.00    -0.000 A 
HETATM   14  C   LIG     1      84.440  96.115  88.060  1.00  0.00    -0.000 A 
HETATM   15  C   LIG     1      84.347  95.087  87.104  1.00  0.00    -0.000 A 
HETATM   16  C   LIG     1      85.185  93.958  87.199  1.00  0.00    -0.004 A 
ENDBRANCH  10  11
ENDBRANCH   7  10
BRANCH   7  17
HETATM   17  C   LIG     1      87.240  91.949  90.862  1.00  0.00     0.024 A 
HETATM   18  C   LIG     1      86.493  91.736  92.047  1.00  0.00     0.097 A 
HETATM   19  N   LIG     1      86.938  92.031  93.286  1.00  0.00    -0.243 NA
HETATM   20  C   LIG     1      88.170  92.567  93.404  1.00  0.00     0.099 A 
HETATM   21  C   LIG     1      89.000  92.835  92.301  1.00  0.00     0.020 A 
HETATM   22  C   LIG     1      88.526  92.523  91.014  1.00  0.00     0.001 A 
ENDBRANCH   7  17
TORSDOF 3
ENDMDL
