MODEL 1
REMARK VINA RESULT:      -0.0      0.000      0.000
REMARK  5 active torsions:
REMARK  status: ('A' for Active; 'I' for Inactive)
REMARK    1  A    between atoms: S_1  and  C_4 
REMARK    2  A    between atoms: S_1  and  N_13 
REMARK    3  A    between atoms: C_7  and  N_10 
REMARK    4  A    between atoms: N_13  and  C_15 
REMARK    5  A    between atoms: C_15  and  C_16 
ROOT
HETATM    1  S   LIG     1      84.464  90.095  91.803  1.00  0.00     0.261 S 
HETATM    2  O   LIG     1      85.013  89.609  90.527  1.00  0.00    -0.200 OA
HETATM    3  O   LIG     1      83.879  89.156  92.771  1.00  0.00    -0.200 OA
ENDROOT
BRANCH   1   4
HETATM    4  C   LIG     1      83.261  91.377  91.472  1.00  0.00     0.103 A 
HETATM    5  C   LIG     1      83.640  92.530  90.757  1.00  0.00     0.014 A 
HETATM    6  C   LIG     1      82.692  93.544  90.518  1.00  0.00     0.017 A 
HETATM    7  C   LIG     1      81.371  93.403  90.992  1.00  0.00     0.050 A 
HETATM    8  C   LIG     1      80.996  92.244  91.701  1.00  0.00     0.017 A 
HETATM    9  C   LIG     1      81.940  91.227  91.941  1.00  0.00     0.014 A 
BRANCH   7  10
HETATM   10  N   LIG     1      80.437  94.410  90.759  1.00  0.00    -0.398 N 
HETATM   11  H   LIG     1      79.825  94.740  91.493  1.00  0.00     0.156 HD
HETATM   12  H   LIG     1      80.432  94.933  89.895  1.00  0.00     0.156 HD
ENDBRANCH   7  10
ENDBRANCH   1   4
BRANCH   1  13
HETATM   13  N   LIG     1      85.712  90.960  92.622  1.00  0.00    -0.297 N 
HETATM   14  H   LIG     1      86.629  90.835  92.194  1.00  0.00     0.173 HD
BRANCH  13  15
HETATM   15  C   LIG     1      85.742  90.997  94.087  1.00  0.00     0.138 C 
BRANCH  15  16
HETATM   16  C   LIG     1      85.115  92.294  94.624  1.00  0.00     0.138 C 
HETATM   17  C   LIG     1      83.623  92.141  94.991  1.00  0.00     0.032 C 
HETATM   18  C   LIG     1      83.024  93.487  95.409  1.00  0.00     0.005 C 
HETATM   19  C   LIG     1      83.299  94.535  94.325  1.00  0.00     0.032 C 
HETATM   20  C   LIG     1      84.798  94.573  93.991  1.00  0.00     0.142 C 
HETATM   21  O   LIG     1      85.238  93.277  93.598  1.00  0.00    -0.355 OA
ENDBRANCH  15  16
ENDBRANCH  13  15
ENDBRANCH   1  13
TORSDOF 5
ENDMDL
MODEL 2
REMARK VINA RESULT:      -0.0      9.529     11.396
REMARK  5 active torsions:
REMARK  status: ('A' for Active; 'I' for Inactive)
REMARK    1  A    between atoms: S_1  and  C_4 
REMARK    2  A    between atoms: S_1  and  N_13 
REMARK    3  A    between atoms: C_7  and  N_10 
REMARK    4  A    between atoms: N_13  and  C_15 
REMARK    5  A    between atoms: C_15  and  C_16 
ROOT
HETATM    1  S   LIG     1      88.756  88.552  87.321  1.00  0.00     0.261 S 
HETATM    2  O   LIG     1      87.317  88.833  87.189  1.00  0.00    -0.200 OA
HETATM    3  O   LIG     1      89.655  89.534  87.944  1.00  0.00    -0.200 OA
ENDROOT
BRANCH   1   4
HETATM    4  C   LIG     1      89.419  88.130  85.713  1.00  0.00     0.103 A 
HETATM    5  C   LIG     1      88.883  87.044  84.994  1.00  0.00     0.014 A 
HETATM    6  C   LIG     1      89.425  86.704  83.739  1.00  0.00     0.017 A 
HETATM    7  C   LIG     1      90.496  87.452  83.206  1.00  0.00     0.050 A 
HETATM    8  C   LIG     1      91.024  88.541  83.928  1.00  0.00     0.017 A 
HETATM    9  C   LIG     1      90.485  88.885  85.183  1.00  0.00     0.014 A 
BRANCH   7  10
HETATM   10  N   LIG     1      91.033  87.111  81.966  1.00  0.00    -0.398 N 
HETATM   11  H   LIG     1      90.470  87.124  81.127  1.00  0.00     0.156 HD
HETATM   12  H   LIG     1      92.026  86.972  81.844  1.00  0.00     0.156 HD
ENDBRANCH   7  10
ENDBRANCH   1   4
BRANCH   1  13
HETATM   13  N   LIG     1      88.929  87.073  88.193  1.00  0.00    -0.297 N 
HETATM   14  H   LIG     1      88.057  86.756  88.614  1.00  0.00     0.173 HD
BRANCH  13  15
HETATM   15  C   LIG     1      90.109  86.850  89.033  1.00  0.00     0.138 C 
BRANCH  15  16
HETATM   16  C   LIG     1      91.167  86.011  88.297  1.00  0.00     0.138 C 
HETATM   17  C   LIG     1      92.242  86.870  87.596  1.00  0.00     0.032 C 
HETATM   18  C   LIG     1      93.199  85.990  86.785  1.00  0.00     0.005 C 
HETATM   19  C   LIG     1      92.398  85.092  85.837  1.00  0.00     0.032 C 
HETATM   20  C   LIG     1      91.320  84.323  86.617  1.00  0.00     0.142 C 
HETATM   21  O   LIG     1      90.481  85.240  87.313  1.00  0.00    -0.355 OA
ENDBRANCH  15  16
ENDBRANCH  13  15
ENDBRANCH   1  13
TORSDOF 5
ENDMDL
MODEL 3
REMARK VINA RESULT:      -0.0      6.062      7.468
REMARK  5 active torsions:
REMARK  status: ('A' for Active; 'I' for Inactive)
REMARK    1  A    between atoms: S_1  and  C_4 
REMARK    2  A    between atoms: S_1  and  N_13 
REMARK    3  A    between atoms: C_7  and  N_10 
REMARK    4  A    between atoms: N_13  and  C_15 
REMARK    5  A    between atoms: C_15  and  C_16 
ROOT
HETATM    1  S   LIG     1      86.364  85.705  89.565  1.00  0.00     0.261 S 
HETATM    2  O   LIG     1      87.087  84.424  89.602  1.00  0.00    -0.200 OA
HETATM    3  O   LIG     1      85.101  85.873  90.299  1.00  0.00    -0.200 OA
ENDROOT
BRANCH   1   4
HETATM    4  C   LIG     1      86.083  86.168  87.859  1.00  0.00     0.103 A 
HETATM    5  C   LIG     1      87.175  86.321  86.983  1.00  0.00     0.014 A 
HETATM    6  C   LIG     1      86.947  86.707  85.647  1.00  0.00     0.017 A 
HETATM    7  C   LIG     1      85.632  86.935  85.192  1.00  0.00     0.050 A 
HETATM    8  C   LIG     1      84.543  86.774  86.072  1.00  0.00     0.017 A 
HETATM    9  C   LIG     1      84.766  86.388  87.408  1.00  0.00     0.014 A 
BRANCH   7  10
HETATM   10  N   LIG     1      85.410  87.321  83.871  1.00  0.00    -0.398 N 
HETATM   11  H   LIG     1      84.802  88.096  83.645  1.00  0.00     0.156 HD
HETATM   12  H   LIG     1      85.947  86.929  83.111  1.00  0.00     0.156 HD
ENDBRANCH   7  10
ENDBRANCH   1   4
BRANCH   1  13
HETATM   13  N   LIG     1      87.440  86.938  90.111  1.00  0.00    -0.297 N 
HETATM   14  H   LIG     1      88.293  86.565  90.527  1.00  0.00     0.173 HD
BRANCH  13  15
HETATM   15  C   LIG     1      86.914  88.122  90.797  1.00  0.00     0.138 C 
BRANCH  15  16
HETATM   16  C   LIG     1      86.771  89.309  89.829  1.00  0.00     0.138 C 
HETATM   17  C   LIG     1      85.354  89.437  89.232  1.00  0.00     0.032 C 
HETATM   18  C   LIG     1      85.300  90.560  88.192  1.00  0.00     0.005 C 
HETATM   19  C   LIG     1      86.404  90.353  87.149  1.00  0.00     0.032 C 
HETATM   20  C   LIG     1      87.764  90.180  87.842  1.00  0.00     0.142 C 
HETATM   21  O   LIG     1      87.701  89.100  88.768  1.00  0.00    -0.355 OA
ENDBRANCH  15  16
ENDBRANCH  13  15
ENDBRANCH   1  13
TORSDOF 5
ENDMDL
MODEL 4
REMARK VINA RESULT:      -0.0      7.909      9.749
REMARK  5 active torsions:
REMARK  status: ('A' for Active; 'I' for Inactive)
REMARK    1  A    between atoms: S_1  and  C_4 
REMARK    2  A    between atoms: S_1  and  N_13 
REMARK    3  A    between atoms: C_7  and  N_10 
REMARK    4  A    between atoms: N_13  and  C_15 
REMARK    5  A    between atoms: C_15  and  C_16 
ROOT
HETATM    1  S   LIG     1      84.155  86.112  84.676  1.00  0.00     0.261 S 
HETATM    2  O   LIG     1      82.759  86.332  84.264  1.00  0.00    -0.200 OA
HETATM    3  O   LIG     1      84.559  84.845  85.303  1.00  0.00    -0.200 OA
ENDROOT
BRANCH   1   4
HETATM    4  C   LIG     1      84.666  87.452  85.747  1.00  0.00     0.103 A 
HETATM    5  C   LIG     1      84.610  88.781  85.285  1.00  0.00     0.014 A 
HETATM    6  C   LIG     1      85.035  89.829  86.126  1.00  0.00     0.017 A 
HETATM    7  C   LIG     1      85.510  89.545  87.423  1.00  0.00     0.050 A 
HETATM    8  C   LIG     1      85.558  88.213  87.881  1.00  0.00     0.017 A 
HETATM    9  C   LIG     1      85.134  87.162  87.044  1.00  0.00     0.014 A 
BRANCH   7  10
HETATM   10  N   LIG     1      85.934  90.582  88.251  1.00  0.00    -0.398 N 
HETATM   11  H   LIG     1      85.505  91.496  88.211  1.00  0.00     0.156 HD
HETATM   12  H   LIG     1      86.586  90.420  89.006  1.00  0.00     0.156 HD
ENDBRANCH   7  10
ENDBRANCH   1   4
BRANCH   1  13
HETATM   13  N   LIG     1      85.159  86.340  83.291  1.00  0.00    -0.297 N 
HETATM   14  H   LIG     1      84.629  86.399  82.422  1.00  0.00     0.173 HD
BRANCH  13  15
HETATM   15  C   LIG     1      86.419  85.603  83.168  1.00  0.00     0.138 C 
BRANCH  15  16
HETATM   16  C   LIG     1      87.614  86.464  83.612  1.00  0.00     0.138 C 
HETATM   17  C   LIG     1      88.012  86.236  85.086  1.00  0.00     0.032 C 
HETATM   18  C   LIG     1      89.127  87.200  85.505  1.00  0.00     0.005 C 
HETATM   19  C   LIG     1      88.714  88.640  85.181  1.00  0.00     0.032 C 
HETATM   20  C   LIG     1      88.284  88.752  83.711  1.00  0.00     0.142 C 
HETATM   21  O   LIG     1      87.234  87.828  83.443  1.00  0.00    -0.355 OA
ENDBRANCH  15  16
ENDBRANCH  13  15
ENDBRANCH   1  13
TORSDOF 5
ENDMDL
MODEL 5
REMARK VINA RESULT:      -0.0      6.290      8.362
REMARK  5 active torsions:
REMARK  status: ('A' for Active; 'I' for Inactive)
REMARK    1  A    between atoms: S_1  and  C_4 
REMARK    2  A    between atoms: S_1  and  N_13 
REMARK    3  A    between atoms: C_7  and  N_10 
REMARK    4  A    between atoms: N_13  and  C_15 
REMARK    5  A    between atoms: C_15  and  C_16 
ROOT
HETATM    1  S   LIG     1      88.975  93.721  88.545  1.00  0.00     0.261 S 
HETATM    2  O   LIG     1      90.022  94.752  88.461  1.00  0.00    -0.200 OA
HETATM    3  O   LIG     1      87.606  94.075  88.950  1.00  0.00    -0.200 OA
ENDROOT
BRANCH   1   4
HETATM    4  C   LIG     1      89.543  92.395  89.604  1.00  0.00     0.103 A 
HETATM    5  C   LIG     1      90.732  91.707  89.292  1.00  0.00     0.014 A 
HETATM    6  C   LIG     1      91.162  90.650  90.118  1.00  0.00     0.017 A 
HETATM    7  C   LIG     1      90.406  90.287  91.252  1.00  0.00     0.050 A 
HETATM    8  C   LIG     1      89.220  90.983  91.562  1.00  0.00     0.017 A 
HETATM    9  C   LIG     1      88.787  92.041  90.739  1.00  0.00     0.014 A 
BRANCH   7  10
HETATM   10  N   LIG     1      90.831  89.238  92.065  1.00  0.00    -0.398 N 
HETATM   11  H   LIG     1      91.350  88.457  91.688  1.00  0.00     0.156 HD
HETATM   12  H   LIG     1      90.753  89.287  93.071  1.00  0.00     0.156 HD
ENDBRANCH   7  10
ENDBRANCH   1   4
BRANCH   1  13
HETATM   13  N   LIG     1      88.868  92.947  87.007  1.00  0.00    -0.297 N 
HETATM   14  H   LIG     1      89.389  93.436  86.279  1.00  0.00     0.173 HD
BRANCH  13  15
HETATM   15  C   LIG     1      87.591  92.392  86.550  1.00  0.00     0.138 C 
BRANCH  15  16
HETATM   16  C   LIG     1      87.518  90.877  86.808  1.00  0.00     0.138 C 
HETATM   17  C   LIG     1      86.815  90.522  88.136  1.00  0.00     0.032 C 
HETATM   18  C   LIG     1      86.874  89.013  88.397  1.00  0.00     0.005 C 
HETATM   19  C   LIG     1      88.325  88.528  88.305  1.00  0.00     0.032 C 
HETATM   20  C   LIG     1      88.952  88.978  86.976  1.00  0.00     0.142 C 
HETATM   21  O   LIG     1      88.858  90.394  86.852  1.00  0.00    -0.355 OA
ENDBRANCH  15  16
ENDBRANCH  13  15
ENDBRANCH   1  13
TORSDOF 5
ENDMDL
MODEL 6
REMARK VINA RESULT:      -0.0      2.562      4.539
REMARK  5 active torsions:
REMARK  status: ('A' for Active; 'I' for Inactive)
REMARK    1  A    between atoms: S_1  and  C_4 
REMARK    2  A    between atoms: S_1  and  N_13 
REMARK    3  A    between atoms: C_7  and  N_10 
REMARK    4  A    between atoms: N_13  and  C_15 
REMARK    5  A    between atoms: C_15  and  C_16 
ROOT
HETATM    1  S   LIG     1      85.565  90.974  94.458  1.00  0.00     0.261 S 
HETATM    2  O   LIG     1      85.428  89.865  95.415  1.00  0.00    -0.200 OA
HETATM    3  O   LIG     1      86.842  91.215  93.770  1.00  0.00    -0.200 OA
ENDROOT
BRANCH   1   4
HETATM    4  C   LIG     1      85.065  92.497  95.253  1.00  0.00     0.103 A 
HETATM    5  C   LIG     1      83.768  92.616  95.791  1.00  0.00     0.014 A 
HETATM    6  C   LIG     1      83.374  93.826  96.397  1.00  0.00     0.017 A 
HETATM    7  C   LIG     1      84.275  94.908  96.465  1.00  0.00     0.050 A 
HETATM    8  C   LIG     1      85.573  94.781  95.930  1.00  0.00     0.017 A 
HETATM    9  C   LIG     1      85.972  93.573  95.325  1.00  0.00     0.014 A 
BRANCH   7  10
HETATM   10  N   LIG     1      83.882  96.105  97.060  1.00  0.00    -0.398 N 
HETATM   11  H   LIG     1      83.761  96.948  96.516  1.00  0.00     0.156 HD
HETATM   12  H   LIG     1      83.576  96.139  98.022  1.00  0.00     0.156 HD
ENDBRANCH   7  10
ENDBRANCH   1   4
BRANCH   1  13
HETATM   13  N   LIG     1      84.358  90.777  93.241  1.00  0.00    -0.297 N 
HETATM   14  H   LIG     1      83.898  89.868  93.282  1.00  0.00     0.173 HD
BRANCH  13  15
HETATM   15  C   LIG     1      84.602  91.258  91.879  1.00  0.00     0.138 C 
BRANCH  15  16
HETATM   16  C   LIG     1      83.959  92.636  91.651  1.00  0.00     0.138 C 
HETATM   17  C   LIG     1      84.938  93.808  91.883  1.00  0.00     0.032 C 
HETATM   18  C   LIG     1      84.216  95.154  91.756  1.00  0.00     0.005 C 
HETATM   19  C   LIG     1      82.988  95.171  92.672  1.00  0.00     0.032 C 
HETATM   20  C   LIG     1      82.108  93.940  92.405  1.00  0.00     0.142 C 
HETATM   21  O   LIG     1      82.876  92.752  92.571  1.00  0.00    -0.355 OA
ENDBRANCH  15  16
ENDBRANCH  13  15
ENDBRANCH   1  13
TORSDOF 5
ENDMDL
MODEL 7
REMARK VINA RESULT:       0.0      6.318      7.775
REMARK  5 active torsions:
REMARK  status: ('A' for Active; 'I' for Inactive)
REMARK    1  A    between atoms: S_1  and  C_4 
REMARK    2  A    between atoms: S_1  and  N_13 
REMARK    3  A    between atoms: C_7  and  N_10 
REMARK    4  A    between atoms: N_13  and  C_15 
REMARK    5  A    between atoms: C_15  and  C_16 
ROOT
HETATM    1  S   LIG     1      86.558  87.990  88.283  1.00  0.00     0.261 S 
HETATM    2  O   LIG     1      87.541  86.915  88.491  1.00  0.00    -0.200 OA
HETATM    3  O   LIG     1      86.551  89.176  89.152  1.00  0.00    -0.200 OA
ENDROOT
BRANCH   1   4
HETATM    4  C   LIG     1      84.913  87.286  88.287  1.00  0.00     0.103 A 
HETATM    5  C   LIG     1      84.577  86.277  87.362  1.00  0.00     0.014 A 
HETATM    6  C   LIG     1      83.273  85.744  87.357  1.00  0.00     0.017 A 
HETATM    7  C   LIG     1      82.313  86.216  88.275  1.00  0.00     0.050 A 
HETATM    8  C   LIG     1      82.657  87.221  89.202  1.00  0.00     0.017 A 
HETATM    9  C   LIG     1      83.959  87.757  89.211  1.00  0.00     0.014 A 
BRANCH   7  10
HETATM   10  N   LIG     1      81.022  85.689  88.265  1.00  0.00    -0.398 N 
HETATM   11  H   LIG     1      80.589  85.343  89.110  1.00  0.00     0.156 HD
HETATM   12  H   LIG     1      80.432  85.760  87.449  1.00  0.00     0.156 HD
ENDBRANCH   7  10
ENDBRANCH   1   4
BRANCH   1  13
HETATM   13  N   LIG     1      86.719  88.548  86.658  1.00  0.00    -0.297 N 
HETATM   14  H   LIG     1      87.553  88.189  86.196  1.00  0.00     0.173 HD
BRANCH  13  15
HETATM   15  C   LIG     1      86.409  89.942  86.326  1.00  0.00     0.138 C 
BRANCH  15  16
HETATM   16  C   LIG     1      84.990  90.075  85.750  1.00  0.00     0.138 C 
HETATM   17  C   LIG     1      83.935  90.446  86.815  1.00  0.00     0.032 C 
HETATM   18  C   LIG     1      82.528  90.451  86.210  1.00  0.00     0.005 C 
HETATM   19  C   LIG     1      82.264  89.117  85.503  1.00  0.00     0.032 C 
HETATM   20  C   LIG     1      83.393  88.811  84.507  1.00  0.00     0.142 C 
HETATM   21  O   LIG     1      84.647  88.813  85.182  1.00  0.00    -0.355 OA
ENDBRANCH  15  16
ENDBRANCH  13  15
ENDBRANCH   1  13
TORSDOF 5
ENDMDL
MODEL 8
REMARK VINA RESULT:       0.0      7.820      9.850
REMARK  5 active torsions:
REMARK  status: ('A' for Active; 'I' for Inactive)
REMARK    1  A    between atoms: S_1  and  C_4 
REMARK    2  A    between atoms: S_1  and  N_13 
REMARK    3  A    between atoms: C_7  and  N_10 
REMARK    4  A    between atoms: N_13  and  C_15 
REMARK    5  A    between atoms: C_15  and  C_16 
ROOT
HETATM    1  S   LIG     1      84.964  87.461  86.259  1.00  0.00     0.261 S 
HETATM    2  O   LIG     1      83.937  88.347  86.831  1.00  0.00    -0.200 OA
HETATM    3  O   LIG     1      84.695  86.699  85.031  1.00  0.00    -0.200 OA
ENDROOT
BRANCH   1   4
HETATM    4  C   LIG     1      85.513  86.314  87.518  1.00  0.00     0.103 A 
HETATM    5  C   LIG     1      86.056  86.801  88.724  1.00  0.00     0.014 A 
HETATM    6  C   LIG     1      86.506  85.892  89.701  1.00  0.00     0.017 A 
HETATM    7  C   LIG     1      86.409  84.503  89.473  1.00  0.00     0.050 A 
HETATM    8  C   LIG     1      85.859  84.023  88.267  1.00  0.00     0.017 A 
HETATM    9  C   LIG     1      85.407  84.928  87.287  1.00  0.00     0.014 A 
BRANCH   7  10
HETATM   10  N   LIG     1      86.859  83.606  90.439  1.00  0.00    -0.398 N 
HETATM   11  H   LIG     1      87.708  83.073  90.308  1.00  0.00     0.156 HD
HETATM   12  H   LIG     1      86.430  83.557  91.352  1.00  0.00     0.156 HD
ENDBRANCH   7  10
ENDBRANCH   1   4
BRANCH   1  13
HETATM   13  N   LIG     1      86.379  88.406  85.975  1.00  0.00    -0.297 N 
HETATM   14  H   LIG     1      86.214  89.407  86.068  1.00  0.00     0.173 HD
BRANCH  13  15
HETATM   15  C   LIG     1      87.290  88.054  84.881  1.00  0.00     0.138 C 
BRANCH  15  16
HETATM   16  C   LIG     1      88.489  87.239  85.395  1.00  0.00     0.138 C 
HETATM   17  C   LIG     1      88.285  85.714  85.269  1.00  0.00     0.032 C 
HETATM   18  C   LIG     1      89.455  84.953  85.900  1.00  0.00     0.005 C 
HETATM   19  C   LIG     1      89.675  85.440  87.336  1.00  0.00     0.032 C 
HETATM   20  C   LIG     1      89.810  86.970  87.364  1.00  0.00     0.142 C 
HETATM   21  O   LIG     1      88.661  87.568  86.772  1.00  0.00    -0.355 OA
ENDBRANCH  15  16
ENDBRANCH  13  15
ENDBRANCH   1  13
TORSDOF 5
ENDMDL
MODEL 9
REMARK VINA RESULT:       0.0      5.873      7.045
REMARK  5 active torsions:
REMARK  status: ('A' for Active; 'I' for Inactive)
REMARK    1  A    between atoms: S_1  and  C_4 
REMARK    2  A    between atoms: S_1  and  N_13 
REMARK    3  A    between atoms: C_7  and  N_10 
REMARK    4  A    between atoms: N_13  and  C_15 
REMARK    5  A    between atoms: C_15  and  C_16 
ROOT
HETATM    1  S   LIG     1      89.337  89.647  90.632  1.00  0.00     0.261 S 
HETATM    2  O   LIG     1      89.867  88.293  90.859  1.00  0.00    -0.200 OA
HETATM    3  O   LIG     1      88.733  90.408  91.735  1.00  0.00    -0.200 OA
ENDROOT
BRANCH   1   4
HETATM    4  C   LIG     1      88.164  89.597  89.282  1.00  0.00     0.103 A 
HETATM    5  C   LIG     1      88.568  89.129  88.016  1.00  0.00     0.014 A 
HETATM    6  C   LIG     1      87.645  89.112  86.952  1.00  0.00     0.017 A 
HETATM    7  C   LIG     1      86.324  89.559  87.156  1.00  0.00     0.050 A 
HETATM    8  C   LIG     1      85.923  90.021  88.427  1.00  0.00     0.017 A 
HETATM    9  C   LIG     1      86.843  90.039  89.494  1.00  0.00     0.014 A 
BRANCH   7  10
HETATM   10  N   LIG     1      85.413  89.547  86.101  1.00  0.00    -0.398 N 
HETATM   11  H   LIG     1      85.440  88.827  85.393  1.00  0.00     0.156 HD
HETATM   12  H   LIG     1      84.621  90.172  86.083  1.00  0.00     0.156 HD
ENDBRANCH   7  10
ENDBRANCH   1   4
BRANCH   1  13
HETATM   13  N   LIG     1      90.610  90.613  89.982  1.00  0.00    -0.297 N 
HETATM   14  H   LIG     1      91.521  90.159  90.038  1.00  0.00     0.173 HD
BRANCH  13  15
HETATM   15  C   LIG     1      90.647  92.054  90.246  1.00  0.00     0.138 C 
BRANCH  15  16
HETATM   16  C   LIG     1      90.056  92.852  89.072  1.00  0.00     0.138 C 
HETATM   17  C   LIG     1      88.563  93.194  89.262  1.00  0.00     0.032 C 
HETATM   18  C   LIG     1      87.999  93.885  88.016  1.00  0.00     0.005 C 
HETATM   19  C   LIG     1      88.295  93.035  86.776  1.00  0.00     0.032 C 
HETATM   20  C   LIG     1      89.793  92.701  86.705  1.00  0.00     0.142 C 
HETATM   21  O   LIG     1      90.199  92.047  87.904  1.00  0.00    -0.355 OA
ENDBRANCH  15  16
ENDBRANCH  13  15
ENDBRANCH   1  13
TORSDOF 5
ENDMDL
