MODEL 1
REMARK VINA RESULT:       0.0      0.000      0.000
REMARK  2 active torsions:
REMARK  status: ('A' for Active; 'I' for Inactive)
REMARK    1  A    between atoms: C_8  and  O_27 
REMARK    2  A    between atoms: C_13  and  O_29 
ROOT
HETATM    1  C   LIG     1      89.187  83.234  91.446  1.00  0.00     0.214 C 
HETATM    2  C   LIG     1      89.720  83.732  92.791  1.00  0.00     0.040 C 
HETATM    3  C   LIG     1      87.905  85.133  92.184  1.00  0.00     0.191 C 
HETATM    4  C   LIG     1      89.661  86.409  94.678  1.00  0.00     0.024 A 
HETATM    5  C   LIG     1      86.412  85.471  92.312  1.00  0.00     0.035 C 
HETATM    6  C   LIG     1      88.509  84.424  93.429  1.00  0.00     0.068 C 
HETATM    7  C   LIG     1      88.912  85.225  94.648  1.00  0.00    -0.001 A 
HETATM    8  C   LIG     1      90.023  86.974  95.923  1.00  0.00     0.116 A 
HETATM    9  C   LIG     1      86.947  83.589  90.390  1.00  0.00     0.235 C 
HETATM   10  C   LIG     1      85.641  84.157  92.509  1.00  0.00     0.026 C 
HETATM   11  C   LIG     1      87.555  83.384  94.080  1.00  0.00     0.096 C 
HETATM   12  C   LIG     1      88.514  84.595  95.828  1.00  0.00     0.060 A 
HETATM   13  C   LIG     1      89.600  86.352  97.142  1.00  0.00     0.118 A 
HETATM   14  C   LIG     1      85.895  83.155  91.412  1.00  0.00    -0.016 C 
HETATM   15  C   LIG     1      86.048  83.579  93.858  1.00  0.00     0.053 C 
HETATM   16  C   LIG     1      88.846  85.145  97.081  1.00  0.00     0.043 A 
HETATM   17  C   LIG     1      85.489  82.208  94.254  1.00  0.00     0.127 C 
HETATM   18  C   LIG     1      86.933  82.739  96.378  1.00  0.00     0.240 C 
HETATM   19  C   LIG     1      84.189  81.470  92.387  1.00  0.00     0.168 C 
HETATM   20  C   LIG     1      85.636  82.080  95.798  1.00  0.00     0.118 C 
HETATM   21  O   LIG     1      87.179  82.597  97.575  1.00  0.00    -0.272 OA
HETATM   22  N   LIG     1      87.729  83.455  95.530  1.00  0.00    -0.301 N 
HETATM   23  O   LIG     1      84.191  82.084  93.692  1.00  0.00    -0.351 OA
HETATM   24  C   LIG     1      85.224  81.986  91.369  1.00  0.00    -0.001 C 
HETATM   25  N   LIG     1      88.154  84.209  91.028  1.00  0.00    -0.024 N 
HETATM   26  H   LIG     1      88.582  84.776  90.310  1.00  0.00     0.283 HD
ENDROOT
BRANCH   8  27
HETATM   27  O   LIG     1      90.764  88.135  95.833  1.00  0.00    -0.326 OA
HETATM   28  C   LIG     1      90.096  89.372  95.636  1.00  0.00     0.181 C 
ENDBRANCH   8  27
BRANCH  13  29
HETATM   29  O   LIG     1      89.908  86.956  98.344  1.00  0.00    -0.326 OA
HETATM   30  C   LIG     1      88.969  87.842  98.936  1.00  0.00     0.181 C 
ENDBRANCH  13  29
TORSDOF 2
ENDMDL
MODEL 2
REMARK VINA RESULT:       0.0      7.796     10.493
REMARK  2 active torsions:
REMARK  status: ('A' for Active; 'I' for Inactive)
REMARK    1  A    between atoms: C_8  and  O_27 
REMARK    2  A    between atoms: C_13  and  O_29 
ROOT
HETATM    1  C   LIG     1      86.068  93.594  87.295  1.00  0.00     0.214 C 
HETATM    2  C   LIG     1      85.677  92.222  86.742  1.00  0.00     0.040 C 
HETATM    3  C   LIG     1      86.981  91.859  88.691  1.00  0.00     0.191 C 
HETATM    4  C   LIG     1      86.600  89.084  86.931  1.00  0.00     0.024 A 
HETATM    5  C   LIG     1      87.030  91.570  90.198  1.00  0.00     0.035 C 
HETATM    6  C   LIG     1      85.714  91.310  87.976  1.00  0.00     0.068 C 
HETATM    7  C   LIG     1      85.624  89.851  87.583  1.00  0.00    -0.001 A 
HETATM    8  C   LIG     1      86.307  87.752  86.560  1.00  0.00     0.116 A 
HETATM    9  C   LIG     1      86.792  94.236  89.602  1.00  0.00     0.235 C 
HETATM   10  C   LIG     1      85.810  92.238  90.852  1.00  0.00     0.026 C 
HETATM   11  C   LIG     1      84.412  91.455  88.812  1.00  0.00     0.096 C 
HETATM   12  C   LIG     1      84.368  89.319  87.875  1.00  0.00     0.060 A 
HETATM   13  C   LIG     1      85.030  87.185  86.876  1.00  0.00     0.118 A 
HETATM   14  C   LIG     1      85.727  93.716  90.568  1.00  0.00    -0.016 C 
HETATM   15  C   LIG     1      84.563  91.530  90.339  1.00  0.00     0.053 C 
HETATM   16  C   LIG     1      84.055  87.990  87.532  1.00  0.00     0.043 A 
HETATM   17  C   LIG     1      83.197  92.074  90.766  1.00  0.00     0.127 C 
HETATM   18  C   LIG     1      82.433  90.057  89.275  1.00  0.00     0.240 C 
HETATM   19  C   LIG     1      83.653  94.016  92.087  1.00  0.00     0.168 C 
HETATM   20  C   LIG     1      82.157  90.939  90.540  1.00  0.00     0.118 C 
HETATM   21  O   LIG     1      81.607  89.201  88.965  1.00  0.00    -0.272 OA
HETATM   22  N   LIG     1      83.589  90.269  88.579  1.00  0.00    -0.301 N 
HETATM   23  O   LIG     1      83.328  92.611  92.075  1.00  0.00    -0.351 OA
HETATM   24  C   LIG     1      84.778  94.483  91.144  1.00  0.00    -0.001 C 
HETATM   25  N   LIG     1      86.994  93.334  88.421  1.00  0.00    -0.024 N 
HETATM   26  H   LIG     1      87.919  93.542  88.073  1.00  0.00     0.283 HD
ENDROOT
BRANCH   8  27
HETATM   27  O   LIG     1      87.338  87.094  85.919  1.00  0.00    -0.326 OA
HETATM   28  C   LIG     1      88.366  86.494  86.693  1.00  0.00     0.181 C 
ENDBRANCH   8  27
BRANCH  13  29
HETATM   29  O   LIG     1      84.789  85.862  86.563  1.00  0.00    -0.326 OA
HETATM   30  C   LIG     1      85.031  84.862  87.542  1.00  0.00     0.181 C 
ENDBRANCH  13  29
TORSDOF 2
ENDMDL
MODEL 3
REMARK VINA RESULT:       0.0      4.557      6.201
REMARK  2 active torsions:
REMARK  status: ('A' for Active; 'I' for Inactive)
REMARK    1  A    between atoms: C_8  and  O_27 
REMARK    2  A    between atoms: C_13  and  O_29 
ROOT
HETATM    1  C   LIG     1      84.312  90.590  96.724  1.00  0.00     0.214 C 
HETATM    2  C   LIG     1      85.760  90.872  96.315  1.00  0.00     0.040 C 
HETATM    3  C   LIG     1      85.643  88.605  97.006  1.00  0.00     0.191 C 
HETATM    4  C   LIG     1      88.770  89.651  96.741  1.00  0.00     0.024 A 
HETATM    5  C   LIG     1      85.508  87.125  96.621  1.00  0.00     0.035 C 
HETATM    6  C   LIG     1      86.297  89.493  95.910  1.00  0.00     0.068 C 
HETATM    7  C   LIG     1      87.800  89.518  95.737  1.00  0.00    -0.001 A 
HETATM    8  C   LIG     1      90.134  89.746  96.384  1.00  0.00     0.116 A 
HETATM    9  C   LIG     1      83.100  88.408  96.897  1.00  0.00     0.235 C 
HETATM   10  C   LIG     1      84.619  87.036  95.371  1.00  0.00     0.026 C 
HETATM   11  C   LIG     1      85.855  89.129  94.465  1.00  0.00     0.096 C 
HETATM   12  C   LIG     1      88.161  89.476  94.390  1.00  0.00     0.060 A 
HETATM   13  C   LIG     1      90.521  89.679  95.006  1.00  0.00     0.118 A 
HETATM   14  C   LIG     1      83.274  87.691  95.558  1.00  0.00    -0.016 C 
HETATM   15  C   LIG     1      85.371  87.692  94.220  1.00  0.00     0.053 C 
HETATM   16  C   LIG     1      89.514  89.552  94.006  1.00  0.00     0.043 A 
HETATM   17  C   LIG     1      84.655  87.824  92.872  1.00  0.00     0.127 C 
HETATM   18  C   LIG     1      86.960  88.919  92.269  1.00  0.00     0.240 C 
HETATM   19  C   LIG     1      82.453  86.955  93.216  1.00  0.00     0.168 C 
HETATM   20  C   LIG     1      85.750  88.049  91.790  1.00  0.00     0.118 C 
HETATM   21  O   LIG     1      87.821  89.230  91.448  1.00  0.00    -0.272 OA
HETATM   22  N   LIG     1      87.012  89.285  93.584  1.00  0.00    -0.301 N 
HETATM   23  O   LIG     1      83.787  86.709  92.725  1.00  0.00    -0.351 OA
HETATM   24  C   LIG     1      82.327  87.621  94.600  1.00  0.00    -0.001 C 
HETATM   25  N   LIG     1      84.303  89.218  97.281  1.00  0.00    -0.024 N 
HETATM   26  H   LIG     1      84.251  89.327  98.284  1.00  0.00     0.283 HD
ENDROOT
BRANCH   8  27
HETATM   27  O   LIG     1      91.000  89.880  97.452  1.00  0.00    -0.326 OA
HETATM   28  C   LIG     1      91.419  88.720  98.154  1.00  0.00     0.181 C 
ENDBRANCH   8  27
BRANCH  13  29
HETATM   29  O   LIG     1      91.863  89.708  94.685  1.00  0.00    -0.326 OA
HETATM   30  C   LIG     1      92.566  88.484  94.530  1.00  0.00     0.181 C 
ENDBRANCH  13  29
TORSDOF 2
ENDMDL
MODEL 4
REMARK VINA RESULT:       0.0      9.639     12.443
REMARK  2 active torsions:
REMARK  status: ('A' for Active; 'I' for Inactive)
REMARK    1  A    between atoms: C_8  and  O_27 
REMARK    2  A    between atoms: C_13  and  O_29 
ROOT
HETATM    1  C   LIG     1      87.372  94.627  87.447  1.00  0.00     0.214 C 
HETATM    2  C   LIG     1      87.293  93.457  86.464  1.00  0.00     0.040 C 
HETATM    3  C   LIG     1      86.563  92.663  88.578  1.00  0.00     0.191 C 
HETATM    4  C   LIG     1      87.147  90.184  86.467  1.00  0.00     0.024 A 
HETATM    5  C   LIG     1      85.397  92.338  89.522  1.00  0.00     0.035 C 
HETATM    6  C   LIG     1      86.212  92.549  87.067  1.00  0.00     0.068 C 
HETATM    7  C   LIG     1      86.184  91.199  86.384  1.00  0.00    -0.001 A 
HETATM    8  C   LIG     1      86.999  89.017  85.684  1.00  0.00     0.116 A 
HETATM    9  C   LIG     1      86.193  94.960  89.628  1.00  0.00     0.235 C 
HETATM   10  C   LIG     1      84.263  93.335  89.241  1.00  0.00     0.026 C 
HETATM   11  C   LIG     1      84.791  93.071  86.715  1.00  0.00     0.096 C 
HETATM   12  C   LIG     1      85.080  91.075  85.541  1.00  0.00     0.060 A 
HETATM   13  C   LIG     1      85.857  88.865  84.832  1.00  0.00     0.118 A 
HETATM   14  C   LIG     1      84.699  94.773  89.365  1.00  0.00    -0.016 C 
HETATM   15  C   LIG     1      83.742  93.060  87.836  1.00  0.00     0.053 C 
HETATM   16  C   LIG     1      84.898  89.916  84.762  1.00  0.00     0.043 A 
HETATM   17  C   LIG     1      82.663  93.990  87.271  1.00  0.00     0.127 C 
HETATM   18  C   LIG     1      82.944  92.343  85.250  1.00  0.00     0.240 C 
HETATM   19  C   LIG     1      82.306  95.664  88.942  1.00  0.00     0.168 C 
HETATM   20  C   LIG     1      81.976  93.237  86.096  1.00  0.00     0.118 C 
HETATM   21  O   LIG     1      82.505  91.792  84.242  1.00  0.00    -0.272 OA
HETATM   22  N   LIG     1      84.234  92.204  85.678  1.00  0.00    -0.301 N 
HETATM   23  O   LIG     1      81.852  94.429  88.352  1.00  0.00    -0.351 OA
HETATM   24  C   LIG     1      83.811  95.781  89.251  1.00  0.00    -0.001 C 
HETATM   25  N   LIG     1      87.049  94.068  88.779  1.00  0.00    -0.024 N 
HETATM   26  H   LIG     1      87.929  93.987  89.267  1.00  0.00     0.283 HD
ENDROOT
BRANCH   8  27
HETATM   27  O   LIG     1      88.008  88.087  85.841  1.00  0.00    -0.326 OA
HETATM   28  C   LIG     1      87.953  87.181  86.932  1.00  0.00     0.181 C 
ENDBRANCH   8  27
BRANCH  13  29
HETATM   29  O   LIG     1      85.699  87.690  84.126  1.00  0.00    -0.326 OA
HETATM   30  C   LIG     1      84.923  86.641  84.689  1.00  0.00     0.181 C 
ENDBRANCH  13  29
TORSDOF 2
ENDMDL
MODEL 5
REMARK VINA RESULT:       0.0      8.945     11.894
REMARK  2 active torsions:
REMARK  status: ('A' for Active; 'I' for Inactive)
REMARK    1  A    between atoms: C_8  and  O_27 
REMARK    2  A    between atoms: C_13  and  O_29 
ROOT
HETATM    1  C   LIG     1      88.202  93.216  88.258  1.00  0.00     0.214 C 
HETATM    2  C   LIG     1      87.662  92.813  86.885  1.00  0.00     0.040 C 
HETATM    3  C   LIG     1      87.461  90.927  88.310  1.00  0.00     0.191 C 
HETATM    4  C   LIG     1      87.017  90.121  85.132  1.00  0.00     0.024 A 
HETATM    5  C   LIG     1      86.582  90.075  89.237  1.00  0.00     0.035 C 
HETATM    6  C   LIG     1      86.674  91.682  87.200  1.00  0.00     0.068 C 
HETATM    7  C   LIG     1      86.241  90.963  85.941  1.00  0.00    -0.001 A 
HETATM    8  C   LIG     1      86.470  89.605  83.936  1.00  0.00     0.116 A 
HETATM    9  C   LIG     1      87.772  92.197  90.502  1.00  0.00     0.235 C 
HETATM   10  C   LIG     1      85.584  91.008  89.939  1.00  0.00     0.026 C 
HETATM   11  C   LIG     1      85.311  92.254  87.680  1.00  0.00     0.096 C 
HETATM   12  C   LIG     1      84.934  91.298  85.585  1.00  0.00     0.060 A 
HETATM   13  C   LIG     1      85.121  89.921  83.570  1.00  0.00     0.118 A 
HETATM   14  C   LIG     1      86.255  92.134  90.683  1.00  0.00    -0.016 C 
HETATM   15  C   LIG     1      84.643  91.562  88.878  1.00  0.00     0.053 C 
HETATM   16  C   LIG     1      84.358  90.785  84.407  1.00  0.00     0.043 A 
HETATM   17  C   LIG     1      83.605  92.605  89.306  1.00  0.00     0.127 C 
HETATM   18  C   LIG     1      83.030  92.418  86.755  1.00  0.00     0.240 C 
HETATM   19  C   LIG     1      84.010  93.011  91.629  1.00  0.00     0.168 C 
HETATM   20  C   LIG     1      82.499  92.630  88.213  1.00  0.00     0.118 C 
HETATM   21  O   LIG     1      82.238  92.524  85.820  1.00  0.00    -0.272 OA
HETATM   22  N   LIG     1      84.350  92.112  86.587  1.00  0.00    -0.301 N 
HETATM   23  O   LIG     1      83.219  92.316  90.643  1.00  0.00    -0.351 OA
HETATM   24  C   LIG     1      85.540  92.991  91.441  1.00  0.00    -0.001 C 
HETATM   25  N   LIG     1      88.195  91.984  89.080  1.00  0.00    -0.024 N 
HETATM   26  H   LIG     1      89.156  91.675  89.123  1.00  0.00     0.283 HD
ENDROOT
BRANCH   8  27
HETATM   27  O   LIG     1      87.324  88.793  83.216  1.00  0.00    -0.326 OA
HETATM   28  C   LIG     1      87.447  87.425  83.574  1.00  0.00     0.181 C 
ENDBRANCH   8  27
BRANCH  13  29
HETATM   29  O   LIG     1      84.585  89.353  82.432  1.00  0.00    -0.326 OA
HETATM   30  C   LIG     1      83.852  88.141  82.540  1.00  0.00     0.181 C 
ENDBRANCH  13  29
TORSDOF 2
ENDMDL
MODEL 6
REMARK VINA RESULT:       0.0      3.538      5.767
REMARK  2 active torsions:
REMARK  status: ('A' for Active; 'I' for Inactive)
REMARK    1  A    between atoms: C_8  and  O_27 
REMARK    2  A    between atoms: C_13  and  O_29 
ROOT
HETATM    1  C   LIG     1      85.862  84.162  91.228  1.00  0.00     0.214 C 
HETATM    2  C   LIG     1      86.916  85.078  91.856  1.00  0.00     0.040 C 
HETATM    3  C   LIG     1      88.022  83.103  91.145  1.00  0.00     0.191 C 
HETATM    4  C   LIG     1      89.925  84.928  93.142  1.00  0.00     0.024 A 
HETATM    5  C   LIG     1      88.854  82.382  90.075  1.00  0.00     0.035 C 
HETATM    6  C   LIG     1      88.223  84.644  91.179  1.00  0.00     0.068 C 
HETATM    7  C   LIG     1      89.426  85.248  91.871  1.00  0.00    -0.001 A 
HETATM    8  C   LIG     1      91.012  85.662  93.669  1.00  0.00     0.116 A 
HETATM    9  C   LIG     1      86.151  82.266  89.622  1.00  0.00     0.235 C 
HETATM   10  C   LIG     1      88.439  82.927  88.700  1.00  0.00     0.026 C 
HETATM   11  C   LIG     1      88.358  85.288  89.771  1.00  0.00     0.096 C 
HETATM   12  C   LIG     1      89.988  86.277  91.116  1.00  0.00     0.060 A 
HETATM   13  C   LIG     1      91.614  86.706  92.894  1.00  0.00     0.118 A 
HETATM   14  C   LIG     1      86.959  82.799  88.439  1.00  0.00    -0.016 C 
HETATM   15  C   LIG     1      88.863  84.388  88.634  1.00  0.00     0.053 C 
HETATM   16  C   LIG     1      91.082  87.014  91.609  1.00  0.00     0.043 A 
HETATM   17  C   LIG     1      88.474  85.197  87.392  1.00  0.00     0.127 C 
HETATM   18  C   LIG     1      89.763  87.037  88.745  1.00  0.00     0.240 C 
HETATM   19  C   LIG     1      87.181  83.717  86.029  1.00  0.00     0.168 C 
HETATM   20  C   LIG     1      89.408  86.440  87.341  1.00  0.00     0.118 C 
HETATM   21  O   LIG     1      90.414  88.079  88.792  1.00  0.00    -0.272 OA
HETATM   22  N   LIG     1      89.344  86.365  89.857  1.00  0.00    -0.301 N 
HETATM   23  O   LIG     1      88.469  84.316  86.278  1.00  0.00    -0.351 OA
HETATM   24  C   LIG     1      86.433  83.133  87.243  1.00  0.00    -0.001 C 
HETATM   25  N   LIG     1      86.554  82.888  90.926  1.00  0.00    -0.024 N 
HETATM   26  H   LIG     1      86.261  82.238  91.642  1.00  0.00     0.283 HD
ENDROOT
BRANCH   8  27
HETATM   27  O   LIG     1      91.416  85.266  94.928  1.00  0.00    -0.326 OA
HETATM   28  C   LIG     1      92.295  84.159  95.059  1.00  0.00     0.181 C 
ENDBRANCH   8  27
BRANCH  13  29
HETATM   29  O   LIG     1      92.716  87.365  93.400  1.00  0.00    -0.326 OA
HETATM   30  C   LIG     1      94.017  86.906  93.061  1.00  0.00     0.181 C 
ENDBRANCH  13  29
TORSDOF 2
ENDMDL
MODEL 7
REMARK VINA RESULT:       0.0     13.234     15.872
REMARK  2 active torsions:
REMARK  status: ('A' for Active; 'I' for Inactive)
REMARK    1  A    between atoms: C_8  and  O_27 
REMARK    2  A    between atoms: C_13  and  O_29 
ROOT
HETATM    1  C   LIG     1      91.703  94.255  87.499  1.00  0.00     0.214 C 
HETATM    2  C   LIG     1      92.985  95.016  87.155  1.00  0.00     0.040 C 
HETATM    3  C   LIG     1      93.090  92.915  86.059  1.00  0.00     0.191 C 
HETATM    4  C   LIG     1      96.017  94.454  86.048  1.00  0.00     0.024 A 
HETATM    5  C   LIG     1      92.878  92.095  84.778  1.00  0.00     0.035 C 
HETATM    6  C   LIG     1      93.415  94.415  85.810  1.00  0.00     0.068 C 
HETATM    7  C   LIG     1      94.817  94.846  85.438  1.00  0.00    -0.001 A 
HETATM    8  C   LIG     1      97.236  95.031  85.624  1.00  0.00     0.116 A 
HETATM    9  C   LIG     1      90.612  92.347  86.303  1.00  0.00     0.235 C 
HETATM   10  C   LIG     1      91.689  92.700  84.015  1.00  0.00     0.026 C 
HETATM   11  C   LIG     1      92.609  95.044  84.639  1.00  0.00     0.096 C 
HETATM   12  C   LIG     1      94.807  95.796  84.416  1.00  0.00     0.060 A 
HETATM   13  C   LIG     1      97.242  95.989  84.559  1.00  0.00     0.118 A 
HETATM   14  C   LIG     1      90.433  92.774  84.846  1.00  0.00    -0.016 C 
HETATM   15  C   LIG     1      92.098  94.091  83.548  1.00  0.00     0.053 C 
HETATM   16  C   LIG     1      96.007  96.374  83.963  1.00  0.00     0.043 A 
HETATM   17  C   LIG     1      91.047  94.953  82.842  1.00  0.00     0.127 C 
HETATM   18  C   LIG     1      93.092  96.593  82.781  1.00  0.00     0.240 C 
HETATM   19  C   LIG     1      89.029  93.669  82.864  1.00  0.00     0.168 C 
HETATM   20  C   LIG     1      91.810  96.059  82.057  1.00  0.00     0.118 C 
HETATM   21  O   LIG     1      93.699  97.538  82.280  1.00  0.00    -0.272 OA
HETATM   22  N   LIG     1      93.487  95.977  83.934  1.00  0.00    -0.301 N 
HETATM   23  O   LIG     1      90.187  94.088  82.114  1.00  0.00    -0.351 OA
HETATM   24  C   LIG     1      89.266  93.184  84.307  1.00  0.00    -0.001 C 
HETATM   25  N   LIG     1      91.862  92.901  86.920  1.00  0.00    -0.024 N 
HETATM   26  H   LIG     1      92.078  92.292  87.696  1.00  0.00     0.283 HD
ENDROOT
BRANCH   8  27
HETATM   27  O   LIG     1      98.352  94.576  86.297  1.00  0.00    -0.326 OA
HETATM   28  C   LIG     1      98.960  93.360  85.891  1.00  0.00     0.181 C 
ENDBRANCH   8  27
BRANCH  13  29
HETATM   29  O   LIG     1      98.450  96.491  84.117  1.00  0.00    -0.326 OA
HETATM   30  C   LIG     1      99.104  95.863  83.024  1.00  0.00     0.181 C 
ENDBRANCH  13  29
TORSDOF 2
ENDMDL
MODEL 8
REMARK VINA RESULT:       0.0      3.215      7.014
REMARK  2 active torsions:
REMARK  status: ('A' for Active; 'I' for Inactive)
REMARK    1  A    between atoms: C_8  and  O_27 
REMARK    2  A    between atoms: C_13  and  O_29 
ROOT
HETATM    1  C   LIG     1      93.140  87.358  91.761  1.00  0.00     0.214 C 
HETATM    2  C   LIG     1      91.625  87.159  91.679  1.00  0.00     0.040 C 
HETATM    3  C   LIG     1      92.549  85.197  92.640  1.00  0.00     0.191 C 
HETATM    4  C   LIG     1      89.405  84.750  91.716  1.00  0.00     0.024 A 
HETATM    5  C   LIG     1      92.887  84.392  93.903  1.00  0.00     0.035 C 
HETATM    6  C   LIG     1      91.330  86.149  92.796  1.00  0.00     0.068 C 
HETATM    7  C   LIG     1      89.918  85.614  92.694  1.00  0.00    -0.001 A 
HETATM    8  C   LIG     1      88.029  84.424  91.727  1.00  0.00     0.116 A 
HETATM    9  C   LIG     1      94.822  86.208  93.212  1.00  0.00     0.235 C 
HETATM   10  C   LIG     1      93.224  85.385  95.025  1.00  0.00     0.026 C 
HETATM   11  C   LIG     1      91.263  86.856  94.178  1.00  0.00     0.096 C 
HETATM   12  C   LIG     1      89.093  86.155  93.681  1.00  0.00     0.060 A 
HETATM   13  C   LIG     1      87.176  84.953  92.749  1.00  0.00     0.118 A 
HETATM   14  C   LIG     1      94.333  86.337  94.655  1.00  0.00    -0.016 C 
HETATM   15  C   LIG     1      91.954  86.157  95.358  1.00  0.00     0.053 C 
HETATM   16  C   LIG     1      87.723  85.834  93.726  1.00  0.00     0.043 A 
HETATM   17  C   LIG     1      92.046  87.288  96.387  1.00  0.00     0.127 C 
HETATM   18  C   LIG     1      89.492  87.414  95.803  1.00  0.00     0.240 C 
HETATM   19  C   LIG     1      94.353  87.423  97.005  1.00  0.00     0.168 C 
HETATM   20  C   LIG     1      90.602  87.564  96.898  1.00  0.00     0.118 C 
HETATM   21  O   LIG     1      88.336  87.711  96.095  1.00  0.00    -0.272 OA
HETATM   22  N   LIG     1      89.858  86.947  94.573  1.00  0.00    -0.301 N 
HETATM   23  O   LIG     1      93.038  86.935  97.341  1.00  0.00    -0.351 OA
HETATM   24  C   LIG     1      94.829  87.211  95.555  1.00  0.00    -0.001 C 
HETATM   25  N   LIG     1      93.698  86.069  92.229  1.00  0.00    -0.024 N 
HETATM   26  H   LIG     1      94.100  85.628  91.414  1.00  0.00     0.283 HD
ENDROOT
BRANCH   8  27
HETATM   27  O   LIG     1      87.633  83.572  90.716  1.00  0.00    -0.326 OA
HETATM   28  C   LIG     1      87.811  82.173  90.878  1.00  0.00     0.181 C 
ENDBRANCH   8  27
BRANCH  13  29
HETATM   29  O   LIG     1      85.850  84.570  92.780  1.00  0.00    -0.326 OA
HETATM   30  C   LIG     1      85.466  83.465  93.585  1.00  0.00     0.181 C 
ENDBRANCH  13  29
TORSDOF 2
ENDMDL
MODEL 9
REMARK VINA RESULT:       0.0      7.593      9.523
REMARK  2 active torsions:
REMARK  status: ('A' for Active; 'I' for Inactive)
REMARK    1  A    between atoms: C_8  and  O_27 
REMARK    2  A    between atoms: C_13  and  O_29 
ROOT
HETATM    1  C   LIG     1      90.353  90.454  89.257  1.00  0.00     0.214 C 
HETATM    2  C   LIG     1      88.965  90.186  89.843  1.00  0.00     0.040 C 
HETATM    3  C   LIG     1      88.664  91.392  87.821  1.00  0.00     0.191 C 
HETATM    4  C   LIG     1      85.892  91.300  89.623  1.00  0.00     0.024 A 
HETATM    5  C   LIG     1      88.362  91.369  86.317  1.00  0.00     0.035 C 
HETATM    6  C   LIG     1      88.043  90.209  88.616  1.00  0.00     0.068 C 
HETATM    7  C   LIG     1      86.586  90.238  89.025  1.00  0.00    -0.001 A 
HETATM    8  C   LIG     1      84.548  91.117  90.021  1.00  0.00     0.116 A 
HETATM    9  C   LIG     1      91.014  90.995  86.905  1.00  0.00     0.235 C 
HETATM   10  C   LIG     1      88.942  90.072  85.733  1.00  0.00     0.026 C 
HETATM   11  C   LIG     1      88.094  88.852  87.860  1.00  0.00     0.096 C 
HETATM   12  C   LIG     1      85.970  89.004  88.814  1.00  0.00     0.060 A 
HETATM   13  C   LIG     1      83.896  89.862  89.788  1.00  0.00     0.118 A 
HETATM   14  C   LIG     1      90.415  89.910  86.010  1.00  0.00    -0.016 C 
HETATM   15  C   LIG     1      88.161  88.907  86.326  1.00  0.00     0.053 C 
HETATM   16  C   LIG     1      84.628  88.799  89.185  1.00  0.00     0.043 A 
HETATM   17  C   LIG     1      88.611  87.484  85.978  1.00  0.00     0.127 C 
HETATM   18  C   LIG     1      86.566  86.944  87.528  1.00  0.00     0.240 C 
HETATM   19  C   LIG     1      90.563  87.732  84.617  1.00  0.00     0.168 C 
HETATM   20  C   LIG     1      87.414  86.537  86.276  1.00  0.00     0.118 C 
HETATM   21  O   LIG     1      85.662  86.196  87.895  1.00  0.00    -0.272 OA
HETATM   22  N   LIG     1      86.861  88.123  88.151  1.00  0.00    -0.301 N 
HETATM   23  O   LIG     1      89.140  87.501  84.659  1.00  0.00    -0.351 OA
HETATM   24  C   LIG     1      91.112  88.880  85.486  1.00  0.00    -0.001 C 
HETATM   25  N   LIG     1      90.141  91.326  88.079  1.00  0.00    -0.024 N 
HETATM   26  H   LIG     1      90.412  92.254  88.369  1.00  0.00     0.283 HD
ENDROOT
BRANCH   8  27
HETATM   27  O   LIG     1      83.965  92.225  90.603  1.00  0.00    -0.326 OA
HETATM   28  C   LIG     1      83.424  93.241  89.773  1.00  0.00     0.181 C 
ENDBRANCH   8  27
BRANCH  13  29
HETATM   29  O   LIG     1      82.564  89.727  90.125  1.00  0.00    -0.326 OA
HETATM   30  C   LIG     1      81.571  89.975  89.141  1.00  0.00     0.181 C 
ENDBRANCH  13  29
TORSDOF 2
ENDMDL
