MODEL 1
REMARK VINA RESULT:       0.0      0.000      0.000
REMARK  5 active torsions:
REMARK  status: ('A' for Active; 'I' for Inactive)
REMARK    1  A    between atoms: C_2  and  C_8 
REMARK    2  A    between atoms: C_3  and  O_21 
REMARK    3  A    between atoms: C_5  and  O_19 
REMARK    4  A    between atoms: C_9  and  O_15 
REMARK    5  A    between atoms: C_12  and  O_17 
ROOT
HETATM    1  C   LIG     1      87.189  87.091  87.472  1.00  0.00     0.026 A 
HETATM    2  C   LIG     1      88.196  87.581  88.331  1.00  0.00     0.026 A 
HETATM    3  C   LIG     1      86.564  87.929  86.530  1.00  0.00     0.086 A 
HETATM    4  C   LIG     1      86.940  89.287  86.433  1.00  0.00     0.002 A 
HETATM    5  C   LIG     1      88.570  88.944  88.227  1.00  0.00     0.089 A 
HETATM    6  C   LIG     1      87.945  89.786  87.285  1.00  0.00     0.022 A 
HETATM    7  C   LIG     1      86.279  90.206  85.423  1.00  0.00     0.033 C 
ENDROOT
BRANCH   2   8
HETATM    8  C   LIG     1      88.826  86.675  89.312  1.00  0.00     0.026 A 
HETATM    9  C   LIG     1      88.249  86.520  90.592  1.00  0.00     0.026 A 
HETATM   10  C   LIG     1      88.821  85.660  91.550  1.00  0.00     0.086 A 
HETATM   11  C   LIG     1      89.988  84.933  91.234  1.00  0.00     0.002 A 
HETATM   12  C   LIG     1      90.617  84.000  92.253  1.00  0.00     0.033 C 
HETATM   13  C   LIG     1      90.571  85.078  89.960  1.00  0.00     0.022 A 
HETATM   14  C   LIG     1      89.998  85.942  89.005  1.00  0.00     0.089 A 
BRANCH  10  15
HETATM   15  O   LIG     1      88.235  85.538  92.776  1.00  0.00    -0.359 OA
HETATM   16  H   LIG     1      88.772  85.074  93.401  1.00  0.00     0.217 HD
ENDBRANCH  10  15
BRANCH  14  17
HETATM   17  O   LIG     1      90.599  86.064  87.784  1.00  0.00    -0.359 OA
HETATM   18  H   LIG     1      91.420  85.600  87.725  1.00  0.00     0.217 HD
ENDBRANCH  14  17
ENDBRANCH   2   8
BRANCH   5  19
HETATM   19  O   LIG     1      89.546  89.464  89.030  1.00  0.00    -0.359 OA
HETATM   20  H   LIG     1      90.324  88.929  89.064  1.00  0.00     0.217 HD
ENDBRANCH   5  19
BRANCH   3  21
HETATM   21  O   LIG     1      85.593  87.414  85.718  1.00  0.00    -0.359 OA
HETATM   22  H   LIG     1      84.829  87.967  85.659  1.00  0.00     0.217 HD
ENDBRANCH   3  21
TORSDOF 5
ENDMDL
MODEL 2
REMARK VINA RESULT:       0.0      5.524      7.487
REMARK  5 active torsions:
REMARK  status: ('A' for Active; 'I' for Inactive)
REMARK    1  A    between atoms: C_2  and  C_8 
REMARK    2  A    between atoms: C_3  and  O_21 
REMARK    3  A    between atoms: C_5  and  O_19 
REMARK    4  A    between atoms: C_9  and  O_15 
REMARK    5  A    between atoms: C_12  and  O_17 
ROOT
HETATM    1  C   LIG     1      87.931  88.323  83.210  1.00  0.00     0.026 A 
HETATM    2  C   LIG     1      86.612  88.537  83.666  1.00  0.00     0.026 A 
HETATM    3  C   LIG     1      88.294  87.123  82.569  1.00  0.00     0.086 A 
HETATM    4  C   LIG     1      87.333  86.109  82.373  1.00  0.00     0.002 A 
HETATM    5  C   LIG     1      85.652  87.515  83.464  1.00  0.00     0.089 A 
HETATM    6  C   LIG     1      86.013  86.313  82.823  1.00  0.00     0.022 A 
HETATM    7  C   LIG     1      87.704  84.809  81.683  1.00  0.00     0.033 C 
ENDROOT
BRANCH   2   8
HETATM    8  C   LIG     1      86.268  89.805  84.340  1.00  0.00     0.026 A 
HETATM    9  C   LIG     1      86.433  89.921  85.738  1.00  0.00     0.026 A 
HETATM   10  C   LIG     1      86.120  91.117  86.412  1.00  0.00     0.086 A 
HETATM   11  C   LIG     1      85.635  92.226  85.688  1.00  0.00     0.002 A 
HETATM   12  C   LIG     1      85.293  93.524  86.397  1.00  0.00     0.033 C 
HETATM   13  C   LIG     1      85.467  92.123  84.293  1.00  0.00     0.022 A 
HETATM   14  C   LIG     1      85.779  90.923  83.622  1.00  0.00     0.089 A 
BRANCH  10  15
HETATM   15  O   LIG     1      86.292  91.190  87.764  1.00  0.00    -0.359 OA
HETATM   16  H   LIG     1      85.726  90.605  88.244  1.00  0.00     0.217 HD
ENDBRANCH  10  15
BRANCH  14  17
HETATM   17  O   LIG     1      85.592  90.858  82.270  1.00  0.00    -0.359 OA
HETATM   18  H   LIG     1      86.401  90.833  81.782  1.00  0.00     0.217 HD
ENDBRANCH  14  17
ENDBRANCH   2   8
BRANCH   5  19
HETATM   19  O   LIG     1      84.360  87.678  83.879  1.00  0.00    -0.359 OA
HETATM   20  H   LIG     1      84.277  88.261  84.618  1.00  0.00     0.217 HD
ENDBRANCH   5  19
BRANCH   3  21
HETATM   21  O   LIG     1      89.582  86.957  82.144  1.00  0.00    -0.359 OA
HETATM   22  H   LIG     1      89.986  87.764  81.864  1.00  0.00     0.217 HD
ENDBRANCH   3  21
TORSDOF 5
ENDMDL
MODEL 3
REMARK VINA RESULT:       0.0     10.185     12.044
REMARK  5 active torsions:
REMARK  status: ('A' for Active; 'I' for Inactive)
REMARK    1  A    between atoms: C_2  and  C_8 
REMARK    2  A    between atoms: C_3  and  O_21 
REMARK    3  A    between atoms: C_5  and  O_19 
REMARK    4  A    between atoms: C_9  and  O_15 
REMARK    5  A    between atoms: C_12  and  O_17 
ROOT
HETATM    1  C   LIG     1      86.320  95.232  94.600  1.00  0.00     0.026 A 
HETATM    2  C   LIG     1      85.032  95.810  94.613  1.00  0.00     0.026 A 
HETATM    3  C   LIG     1      87.348  95.725  95.425  1.00  0.00     0.086 A 
HETATM    4  C   LIG     1      87.100  96.816  96.286  1.00  0.00     0.002 A 
HETATM    5  C   LIG     1      84.790  96.904  95.481  1.00  0.00     0.089 A 
HETATM    6  C   LIG     1      85.818  97.399  96.308  1.00  0.00     0.022 A 
HETATM    7  C   LIG     1      88.195  97.361  97.184  1.00  0.00     0.033 C 
ENDROOT
BRANCH   2   8
HETATM    8  C   LIG     1      83.979  95.271  93.729  1.00  0.00     0.026 A 
HETATM    9  C   LIG     1      83.846  95.772  92.415  1.00  0.00     0.026 A 
HETATM   10  C   LIG     1      82.857  95.277  91.543  1.00  0.00     0.086 A 
HETATM   11  C   LIG     1      81.980  94.261  91.979  1.00  0.00     0.002 A 
HETATM   12  C   LIG     1      80.908  93.714  91.053  1.00  0.00     0.033 C 
HETATM   13  C   LIG     1      82.105  93.753  93.287  1.00  0.00     0.022 A 
HETATM   14  C   LIG     1      83.095  94.252  94.158  1.00  0.00     0.089 A 
BRANCH  10  15
HETATM   15  O   LIG     1      82.758  95.787  90.281  1.00  0.00    -0.359 OA
HETATM   16  H   LIG     1      82.932  96.715  90.240  1.00  0.00     0.217 HD
ENDBRANCH  10  15
BRANCH  14  17
HETATM   17  O   LIG     1      83.177  93.741  95.422  1.00  0.00    -0.359 OA
HETATM   18  H   LIG     1      83.344  94.398  96.080  1.00  0.00     0.217 HD
ENDBRANCH  14  17
ENDBRANCH   2   8
BRANCH   5  19
HETATM   19  O   LIG     1      83.558  97.491  95.537  1.00  0.00    -0.359 OA
HETATM   20  H   LIG     1      83.559  98.389  95.241  1.00  0.00     0.217 HD
ENDBRANCH   5  19
BRANCH   3  21
HETATM   21  O   LIG     1      88.580  95.137  95.380  1.00  0.00    -0.359 OA
HETATM   22  H   LIG     1      88.812  94.702  96.187  1.00  0.00     0.217 HD
ENDBRANCH   3  21
TORSDOF 5
ENDMDL
MODEL 4
REMARK VINA RESULT:       0.0      4.905      7.683
REMARK  5 active torsions:
REMARK  status: ('A' for Active; 'I' for Inactive)
REMARK    1  A    between atoms: C_2  and  C_8 
REMARK    2  A    between atoms: C_3  and  O_21 
REMARK    3  A    between atoms: C_5  and  O_19 
REMARK    4  A    between atoms: C_9  and  O_15 
REMARK    5  A    between atoms: C_12  and  O_17 
ROOT
HETATM    1  C   LIG     1      93.127  88.358  91.018  1.00  0.00     0.026 A 
HETATM    2  C   LIG     1      92.889  89.609  90.408  1.00  0.00     0.026 A 
HETATM    3  C   LIG     1      93.410  88.261  92.393  1.00  0.00     0.086 A 
HETATM    4  C   LIG     1      93.461  89.426  93.187  1.00  0.00     0.002 A 
HETATM    5  C   LIG     1      92.940  90.775  91.212  1.00  0.00     0.089 A 
HETATM    6  C   LIG     1      93.224  90.680  92.589  1.00  0.00     0.022 A 
HETATM    7  C   LIG     1      93.765  89.342  94.672  1.00  0.00     0.033 C 
ENDROOT
BRANCH   2   8
HETATM    8  C   LIG     1      92.600  89.675  88.961  1.00  0.00     0.026 A 
HETATM    9  C   LIG     1      93.666  89.783  88.040  1.00  0.00     0.026 A 
HETATM   10  C   LIG     1      93.427  89.842  86.653  1.00  0.00     0.086 A 
HETATM   11  C   LIG     1      92.105  89.790  86.164  1.00  0.00     0.002 A 
HETATM   12  C   LIG     1      91.829  89.852  84.673  1.00  0.00     0.033 C 
HETATM   13  C   LIG     1      91.035  89.681  87.073  1.00  0.00     0.022 A 
HETATM   14  C   LIG     1      91.277  89.624  88.461  1.00  0.00     0.089 A 
BRANCH  10  15
HETATM   15  O   LIG     1      94.483  89.948  85.795  1.00  0.00    -0.359 OA
HETATM   16  H   LIG     1      94.473  90.746  85.288  1.00  0.00     0.217 HD
ENDBRANCH  10  15
BRANCH  14  17
HETATM   17  O   LIG     1      90.212  89.529  89.311  1.00  0.00    -0.359 OA
HETATM   18  H   LIG     1      89.479  90.067  89.053  1.00  0.00     0.217 HD
ENDBRANCH  14  17
ENDBRANCH   2   8
BRANCH   5  19
HETATM   19  O   LIG     1      92.708  92.008  90.670  1.00  0.00    -0.359 OA
HETATM   20  H   LIG     1      92.126  91.984  89.926  1.00  0.00     0.217 HD
ENDBRANCH   5  19
BRANCH   3  21
HETATM   21  O   LIG     1      93.635  87.031  92.942  1.00  0.00    -0.359 OA
HETATM   22  H   LIG     1      93.112  86.349  92.549  1.00  0.00     0.217 HD
ENDBRANCH   3  21
TORSDOF 5
ENDMDL
MODEL 5
REMARK VINA RESULT:       0.0      7.087     10.057
REMARK  5 active torsions:
REMARK  status: ('A' for Active; 'I' for Inactive)
REMARK    1  A    between atoms: C_2  and  C_8 
REMARK    2  A    between atoms: C_3  and  O_21 
REMARK    3  A    between atoms: C_5  and  O_19 
REMARK    4  A    between atoms: C_9  and  O_15 
REMARK    5  A    between atoms: C_12  and  O_17 
ROOT
HETATM    1  C   LIG     1      88.299  94.417  89.485  1.00  0.00     0.026 A 
HETATM    2  C   LIG     1      88.162  95.348  88.432  1.00  0.00     0.026 A 
HETATM    3  C   LIG     1      87.429  93.317  89.602  1.00  0.00     0.086 A 
HETATM    4  C   LIG     1      86.396  93.130  88.658  1.00  0.00     0.002 A 
HETATM    5  C   LIG     1      87.124  95.153  87.488  1.00  0.00     0.089 A 
HETATM    6  C   LIG     1      86.251  94.053  87.603  1.00  0.00     0.022 A 
HETATM    7  C   LIG     1      85.448  91.950  88.767  1.00  0.00     0.033 C 
ENDROOT
BRANCH   2   8
HETATM    8  C   LIG     1      89.089  96.495  88.344  1.00  0.00     0.026 A 
HETATM    9  C   LIG     1      88.784  97.695  89.023  1.00  0.00     0.026 A 
HETATM   10  C   LIG     1      89.648  98.805  88.965  1.00  0.00     0.086 A 
HETATM   11  C   LIG     1      90.844  98.727  88.220  1.00  0.00     0.002 A 
HETATM   12  C   LIG     1      91.788  99.914  88.146  1.00  0.00     0.033 C 
HETATM   13  C   LIG     1      91.159  97.535  87.539  1.00  0.00     0.022 A 
HETATM   14  C   LIG     1      90.290  96.426  87.597  1.00  0.00     0.089 A 
BRANCH  10  15
HETATM   15  O   LIG     1      89.318  99.948  89.634  1.00  0.00    -0.359 OA
HETATM   16  H   LIG     1      89.700  99.997  90.498  1.00  0.00     0.217 HD
ENDBRANCH  10  15
BRANCH  14  17
HETATM   17  O   LIG     1      90.625  95.292  86.915  1.00  0.00    -0.359 OA
HETATM   18  H   LIG     1      89.959  95.011  86.307  1.00  0.00     0.217 HD
ENDBRANCH  14  17
ENDBRANCH   2   8
BRANCH   5  19
HETATM   19  O   LIG     1      86.956  96.022  86.446  1.00  0.00    -0.359 OA
HETATM   20  H   LIG     1      87.522  95.837  85.712  1.00  0.00     0.217 HD
ENDBRANCH   5  19
BRANCH   3  21
HETATM   21  O   LIG     1      87.597  92.441  90.636  1.00  0.00    -0.359 OA
HETATM   22  H   LIG     1      88.111  92.799  91.344  1.00  0.00     0.217 HD
ENDBRANCH   3  21
TORSDOF 5
ENDMDL
MODEL 6
REMARK VINA RESULT:       0.0      7.058      9.783
REMARK  5 active torsions:
REMARK  status: ('A' for Active; 'I' for Inactive)
REMARK    1  A    between atoms: C_2  and  C_8 
REMARK    2  A    between atoms: C_3  and  O_21 
REMARK    3  A    between atoms: C_5  and  O_19 
REMARK    4  A    between atoms: C_9  and  O_15 
REMARK    5  A    between atoms: C_12  and  O_17 
ROOT
HETATM    1  C   LIG     1      96.046  89.691  94.669  1.00  0.00     0.026 A 
HETATM    2  C   LIG     1      94.854  89.046  94.274  1.00  0.00     0.026 A 
HETATM    3  C   LIG     1      96.228  90.139  95.991  1.00  0.00     0.086 A 
HETATM    4  C   LIG     1      95.209  89.947  96.948  1.00  0.00     0.002 A 
HETATM    5  C   LIG     1      93.836  88.855  95.241  1.00  0.00     0.089 A 
HETATM    6  C   LIG     1      94.015  89.303  96.565  1.00  0.00     0.022 A 
HETATM    7  C   LIG     1      95.387  90.422  98.379  1.00  0.00     0.033 C 
ENDROOT
BRANCH   2   8
HETATM    8  C   LIG     1      94.694  88.595  92.877  1.00  0.00     0.026 A 
HETATM    9  C   LIG     1      94.162  89.480  91.913  1.00  0.00     0.026 A 
HETATM   10  C   LIG     1      94.001  89.084  90.571  1.00  0.00     0.086 A 
HETATM   11  C   LIG     1      94.378  87.785  90.171  1.00  0.00     0.002 A 
HETATM   12  C   LIG     1      94.213  87.341  88.729  1.00  0.00     0.033 C 
HETATM   13  C   LIG     1      94.910  86.894  91.124  1.00  0.00     0.022 A 
HETATM   14  C   LIG     1      95.068  87.292  92.467  1.00  0.00     0.089 A 
BRANCH  10  15
HETATM   15  O   LIG     1      93.483  89.967  89.669  1.00  0.00    -0.359 OA
HETATM   16  H   LIG     1      94.110  90.249  89.020  1.00  0.00     0.217 HD
ENDBRANCH  10  15
BRANCH  14  17
HETATM   17  O   LIG     1      95.578  86.396  93.363  1.00  0.00    -0.359 OA
HETATM   18  H   LIG     1      95.493  86.677  94.261  1.00  0.00     0.217 HD
ENDBRANCH  14  17
ENDBRANCH   2   8
BRANCH   5  19
HETATM   19  O   LIG     1      92.667  88.228  94.911  1.00  0.00    -0.359 OA
HETATM   20  H   LIG     1      91.922  88.809  94.904  1.00  0.00     0.217 HD
ENDBRANCH   5  19
BRANCH   3  21
HETATM   21  O   LIG     1      97.397  90.759  96.330  1.00  0.00    -0.359 OA
HETATM   22  H   LIG     1      98.023  90.781  95.622  1.00  0.00     0.217 HD
ENDBRANCH   3  21
TORSDOF 5
ENDMDL
MODEL 7
REMARK VINA RESULT:       0.0      6.301      9.136
REMARK  5 active torsions:
REMARK  status: ('A' for Active; 'I' for Inactive)
REMARK    1  A    between atoms: C_2  and  C_8 
REMARK    2  A    between atoms: C_3  and  O_21 
REMARK    3  A    between atoms: C_5  and  O_19 
REMARK    4  A    between atoms: C_9  and  O_15 
REMARK    5  A    between atoms: C_12  and  O_17 
ROOT
HETATM    1  C   LIG     1      94.197  89.473  93.916  1.00  0.00     0.026 A 
HETATM    2  C   LIG     1      93.337  88.816  94.823  1.00  0.00     0.026 A 
HETATM    3  C   LIG     1      95.594  89.315  93.991  1.00  0.00     0.086 A 
HETATM    4  C   LIG     1      96.157  88.489  94.987  1.00  0.00     0.002 A 
HETATM    5  C   LIG     1      93.911  87.988  95.819  1.00  0.00     0.089 A 
HETATM    6  C   LIG     1      95.309  87.828  95.897  1.00  0.00     0.022 A 
HETATM    7  C   LIG     1      97.661  88.305  95.085  1.00  0.00     0.033 C 
ENDROOT
BRANCH   2   8
HETATM    8  C   LIG     1      91.877  89.010  94.718  1.00  0.00     0.026 A 
HETATM    9  C   LIG     1      91.263  90.083  95.402  1.00  0.00     0.026 A 
HETATM   10  C   LIG     1      89.874  90.300  95.320  1.00  0.00     0.086 A 
HETATM   11  C   LIG     1      89.073  89.439  94.541  1.00  0.00     0.002 A 
HETATM   12  C   LIG     1      87.574  89.658  94.440  1.00  0.00     0.033 C 
HETATM   13  C   LIG     1      89.674  88.366  93.854  1.00  0.00     0.022 A 
HETATM   14  C   LIG     1      91.064  88.150  93.940  1.00  0.00     0.089 A 
BRANCH  10  15
HETATM   15  O   LIG     1      89.317  91.347  95.996  1.00  0.00    -0.359 OA
HETATM   16  H   LIG     1      88.378  91.282  96.076  1.00  0.00     0.217 HD
ENDBRANCH  10  15
BRANCH  14  17
HETATM   17  O   LIG     1      91.608  87.093  93.268  1.00  0.00    -0.359 OA
HETATM   18  H   LIG     1      91.792  86.352  93.824  1.00  0.00     0.217 HD
ENDBRANCH  14  17
ENDBRANCH   2   8
BRANCH   5  19
HETATM   19  O   LIG     1      93.120  87.324  96.715  1.00  0.00    -0.359 OA
HETATM   20  H   LIG     1      93.383  86.426  96.849  1.00  0.00     0.217 HD
ENDBRANCH   5  19
BRANCH   3  21
HETATM   21  O   LIG     1      96.389  89.969  93.094  1.00  0.00    -0.359 OA
HETATM   22  H   LIG     1      96.857  89.383  92.519  1.00  0.00     0.217 HD
ENDBRANCH   3  21
TORSDOF 5
ENDMDL
MODEL 8
REMARK VINA RESULT:       0.0      7.344      9.051
REMARK  5 active torsions:
REMARK  status: ('A' for Active; 'I' for Inactive)
REMARK    1  A    between atoms: C_2  and  C_8 
REMARK    2  A    between atoms: C_3  and  O_21 
REMARK    3  A    between atoms: C_5  and  O_19 
REMARK    4  A    between atoms: C_9  and  O_15 
REMARK    5  A    between atoms: C_12  and  O_17 
ROOT
HETATM    1  C   LIG     1      94.197  89.473  93.916  1.00  0.00     0.026 A 
HETATM    2  C   LIG     1      93.979  88.571  94.980  1.00  0.00     0.026 A 
HETATM    3  C   LIG     1      95.431  90.131  93.759  1.00  0.00     0.086 A 
HETATM    4  C   LIG     1      96.478  89.896  94.677  1.00  0.00     0.002 A 
HETATM    5  C   LIG     1      95.035  88.339  95.896  1.00  0.00     0.089 A 
HETATM    6  C   LIG     1      96.271  88.997  95.743  1.00  0.00     0.022 A 
HETATM    7  C   LIG     1      97.816  90.595  94.525  1.00  0.00     0.033 C 
ENDROOT
BRANCH   2   8
HETATM    8  C   LIG     1      92.669  87.903  95.117  1.00  0.00     0.026 A 
HETATM    9  C   LIG     1      91.639  88.529  95.853  1.00  0.00     0.026 A 
HETATM   10  C   LIG     1      90.376  87.922  95.998  1.00  0.00     0.086 A 
HETATM   11  C   LIG     1      90.124  86.669  95.401  1.00  0.00     0.002 A 
HETATM   12  C   LIG     1      88.769  86.001  95.546  1.00  0.00     0.033 C 
HETATM   13  C   LIG     1      91.145  86.036  94.664  1.00  0.00     0.022 A 
HETATM   14  C   LIG     1      92.408  86.645  94.522  1.00  0.00     0.089 A 
BRANCH  10  15
HETATM   15  O   LIG     1      89.406  88.557  96.718  1.00  0.00    -0.359 OA
HETATM   16  H   LIG     1      88.566  88.568  96.283  1.00  0.00     0.217 HD
ENDBRANCH  10  15
BRANCH  14  17
HETATM   17  O   LIG     1      93.375  85.995  93.808  1.00  0.00    -0.359 OA
HETATM   18  H   LIG     1      93.262  85.057  93.796  1.00  0.00     0.217 HD
ENDBRANCH  14  17
ENDBRANCH   2   8
BRANCH   5  19
HETATM   19  O   LIG     1      94.876  87.469  96.938  1.00  0.00    -0.359 OA
HETATM   20  H   LIG     1      95.618  86.896  97.061  1.00  0.00     0.217 HD
ENDBRANCH   5  19
BRANCH   3  21
HETATM   21  O   LIG     1      95.599  90.996  92.716  1.00  0.00    -0.359 OA
HETATM   22  H   LIG     1      96.246  90.703  92.093  1.00  0.00     0.217 HD
ENDBRANCH   3  21
TORSDOF 5
ENDMDL
MODEL 9
REMARK VINA RESULT:       0.0      2.837      6.562
REMARK  5 active torsions:
REMARK  status: ('A' for Active; 'I' for Inactive)
REMARK    1  A    between atoms: C_2  and  C_8 
REMARK    2  A    between atoms: C_3  and  O_21 
REMARK    3  A    between atoms: C_5  and  O_19 
REMARK    4  A    between atoms: C_9  and  O_15 
REMARK    5  A    between atoms: C_12  and  O_17 
ROOT
HETATM    1  C   LIG     1      87.064  87.549  88.125  1.00  0.00     0.026 A 
HETATM    2  C   LIG     1      86.223  88.020  87.093  1.00  0.00     0.026 A 
HETATM    3  C   LIG     1      87.152  86.176  88.423  1.00  0.00     0.086 A 
HETATM    4  C   LIG     1      86.391  85.244  87.685  1.00  0.00     0.002 A 
HETATM    5  C   LIG     1      85.463  87.079  86.356  1.00  0.00     0.089 A 
HETATM    6  C   LIG     1      85.549  85.703  86.652  1.00  0.00     0.022 A 
HETATM    7  C   LIG     1      86.472  83.759  87.990  1.00  0.00     0.033 C 
ENDROOT
BRANCH   2   8
HETATM    8  C   LIG     1      86.151  89.468  86.813  1.00  0.00     0.026 A 
HETATM    9  C   LIG     1      85.219  90.270  87.509  1.00  0.00     0.026 A 
HETATM   10  C   LIG     1      85.127  91.655  87.270  1.00  0.00     0.086 A 
HETATM   11  C   LIG     1      85.978  92.263  86.324  1.00  0.00     0.002 A 
HETATM   12  C   LIG     1      85.894  93.755  86.054  1.00  0.00     0.033 C 
HETATM   13  C   LIG     1      86.912  91.474  85.624  1.00  0.00     0.022 A 
HETATM   14  C   LIG     1      87.000  90.087  85.864  1.00  0.00     0.089 A 
BRANCH  10  15
HETATM   15  O   LIG     1      84.213  92.395  87.961  1.00  0.00    -0.359 OA
HETATM   16  H   LIG     1      84.558  93.219  88.271  1.00  0.00     0.217 HD
ENDBRANCH  10  15
BRANCH  14  17
HETATM   17  O   LIG     1      87.912  89.355  85.158  1.00  0.00    -0.359 OA
HETATM   18  H   LIG     1      88.759  89.311  85.575  1.00  0.00     0.217 HD
ENDBRANCH  14  17
ENDBRANCH   2   8
BRANCH   5  19
HETATM   19  O   LIG     1      84.642  87.484  85.342  1.00  0.00    -0.359 OA
HETATM   20  H   LIG     1      84.840  87.072  84.515  1.00  0.00     0.217 HD
ENDBRANCH   5  19
BRANCH   3  21
HETATM   21  O   LIG     1      87.977  85.763  89.429  1.00  0.00    -0.359 OA
HETATM   22  H   LIG     1      88.379  86.480  89.896  1.00  0.00     0.217 HD
ENDBRANCH   3  21
TORSDOF 5
ENDMDL
