MODEL 1
REMARK VINA RESULT:      -0.0      0.000      0.000
REMARK  3 active torsions:
REMARK  status: ('A' for Active; 'I' for Inactive)
REMARK    1  A    between atoms: C_8  and  N_11 
REMARK    2  A    between atoms: N_11  and  C_13 
REMARK    3  A    between atoms: C_13  and  C_14 
ROOT
HETATM    1  N   LIG     1      89.424  87.625  89.332  1.00  0.00    -0.207 NA
HETATM    2  N   LIG     1      91.184  86.266  90.202  1.00  0.00    -0.203 NA
HETATM    3  N   LIG     1      90.686  83.893  90.424  1.00  0.00    -0.153 NA
HETATM    4  H   LIG     1      89.474  82.194  90.276  1.00  0.00     0.189 HD
HETATM    5  N   LIG     1      89.542  83.193  90.129  1.00  0.00    -0.273 N 
HETATM    6  C   LIG     1      90.399  85.173  90.100  1.00  0.00     0.187 A 
HETATM    7  C   LIG     1      89.098  85.273  89.608  1.00  0.00     0.090 A 
HETATM    8  C   LIG     1      88.617  86.548  89.217  1.00  0.00     0.143 A 
HETATM    9  C   LIG     1      88.541  84.001  89.626  1.00  0.00     0.097 A 
HETATM   10  C   LIG     1      90.654  87.427  89.815  1.00  0.00     0.202 A 
ENDROOT
BRANCH   8  11
HETATM   11  N   LIG     1      87.345  86.829  88.701  1.00  0.00    -0.353 N 
HETATM   12  H   LIG     1      87.060  86.353  87.856  1.00  0.00     0.162 HD
BRANCH  11  13
HETATM   13  C   LIG     1      86.311  87.499  89.471  1.00  0.00     0.151 C 
BRANCH  13  14
HETATM   14  C   LIG     1      86.029  86.810  90.766  1.00  0.00     0.100 A 
HETATM   15  C   LIG     1      86.215  87.169  92.073  1.00  0.00     0.024 A 
HETATM   16  C   LIG     1      85.761  86.074  92.859  1.00  0.00     0.029 A 
HETATM   17  C   LIG     1      85.336  85.125  91.975  1.00  0.00     0.122 A 
HETATM   18  O   LIG     1      85.496  85.555  90.694  1.00  0.00    -0.307 OA
ENDBRANCH  13  14
ENDBRANCH  11  13
ENDBRANCH   8  11
TORSDOF 3
ENDMDL
MODEL 2
REMARK VINA RESULT:      -0.0      7.982      9.711
REMARK  3 active torsions:
REMARK  status: ('A' for Active; 'I' for Inactive)
REMARK    1  A    between atoms: C_8  and  N_11 
REMARK    2  A    between atoms: N_11  and  C_13 
REMARK    3  A    between atoms: C_13  and  C_14 
ROOT
HETATM    1  N   LIG     1      94.363  95.915  91.696  1.00  0.00    -0.207 NA
HETATM    2  N   LIG     1      96.319  94.813  90.884  1.00  0.00    -0.203 NA
HETATM    3  N   LIG     1      95.937  92.849  89.497  1.00  0.00    -0.153 NA
HETATM    4  H   LIG     1      94.754  91.430  88.514  1.00  0.00     0.189 HD
HETATM    5  N   LIG     1      94.763  92.257  89.097  1.00  0.00    -0.273 N 
HETATM    6  C   LIG     1      95.551  93.903  90.249  1.00  0.00     0.187 A 
HETATM    7  C   LIG     1      94.161  93.972  90.316  1.00  0.00     0.090 A 
HETATM    8  C   LIG     1      93.569  95.020  91.068  1.00  0.00     0.143 A 
HETATM    9  C   LIG     1      93.648  92.914  89.579  1.00  0.00     0.097 A 
HETATM   10  C   LIG     1      95.684  95.764  91.571  1.00  0.00     0.202 A 
ENDROOT
BRANCH   8  11
HETATM   11  N   LIG     1      92.196  95.241  91.240  1.00  0.00    -0.353 N 
HETATM   12  H   LIG     1      91.632  95.382  90.414  1.00  0.00     0.162 HD
BRANCH  11  13
HETATM   13  C   LIG     1      91.500  94.959  92.484  1.00  0.00     0.151 C 
BRANCH  13  14
HETATM   14  C   LIG     1      91.696  93.549  92.938  1.00  0.00     0.100 A 
HETATM   15  C   LIG     1      92.331  92.996  94.017  1.00  0.00     0.024 A 
HETATM   16  C   LIG     1      92.187  91.587  93.890  1.00  0.00     0.029 A 
HETATM   17  C   LIG     1      91.479  91.382  92.741  1.00  0.00     0.122 A 
HETATM   18  O   LIG     1      91.175  92.568  92.145  1.00  0.00    -0.307 OA
ENDBRANCH  13  14
ENDBRANCH  11  13
ENDBRANCH   8  11
TORSDOF 3
ENDMDL
MODEL 3
REMARK VINA RESULT:      -0.0      3.411      5.275
REMARK  3 active torsions:
REMARK  status: ('A' for Active; 'I' for Inactive)
REMARK    1  A    between atoms: C_8  and  N_11 
REMARK    2  A    between atoms: N_11  and  C_13 
REMARK    3  A    between atoms: C_13  and  C_14 
ROOT
HETATM    1  N   LIG     1      88.466  90.457  87.818  1.00  0.00    -0.207 NA
HETATM    2  N   LIG     1      86.359  90.571  88.935  1.00  0.00    -0.203 NA
HETATM    3  N   LIG     1      85.903  88.793  90.534  1.00  0.00    -0.153 NA
HETATM    4  H   LIG     1      86.347  87.044  91.593  1.00  0.00     0.189 HD
HETATM    5  N   LIG     1      86.668  87.715  90.908  1.00  0.00    -0.273 N 
HETATM    6  C   LIG     1      86.652  89.445  89.618  1.00  0.00     0.187 A 
HETATM    7  C   LIG     1      87.866  88.789  89.423  1.00  0.00     0.090 A 
HETATM    8  C   LIG     1      88.788  89.330  88.490  1.00  0.00     0.143 A 
HETATM    9  C   LIG     1      87.882  87.673  90.249  1.00  0.00     0.097 A 
HETATM   10  C   LIG     1      87.279  91.012  88.075  1.00  0.00     0.202 A 
ENDROOT
BRANCH   8  11
HETATM   11  N   LIG     1      90.048  88.805  88.174  1.00  0.00    -0.353 N 
HETATM   12  H   LIG     1      90.718  88.697  88.922  1.00  0.00     0.162 HD
BRANCH  11  13
HETATM   13  C   LIG     1      90.327  88.119  86.924  1.00  0.00     0.151 C 
BRANCH  13  14
HETATM   14  C   LIG     1      89.392  86.979  86.680  1.00  0.00     0.100 A 
HETATM   15  C   LIG     1      88.421  86.752  85.744  1.00  0.00     0.024 A 
HETATM   16  C   LIG     1      87.859  85.481  86.045  1.00  0.00     0.029 A 
HETATM   17  C   LIG     1      88.526  85.026  87.146  1.00  0.00     0.122 A 
HETATM   18  O   LIG     1      89.461  85.929  87.550  1.00  0.00    -0.307 OA
ENDBRANCH  13  14
ENDBRANCH  11  13
ENDBRANCH   8  11
TORSDOF 3
ENDMDL
MODEL 4
REMARK VINA RESULT:      -0.0      7.682      8.786
REMARK  3 active torsions:
REMARK  status: ('A' for Active; 'I' for Inactive)
REMARK    1  A    between atoms: C_8  and  N_11 
REMARK    2  A    between atoms: N_11  and  C_13 
REMARK    3  A    between atoms: C_13  and  C_14 
ROOT
HETATM    1  N   LIG     1      90.731  88.149  94.781  1.00  0.00    -0.207 NA
HETATM    2  N   LIG     1      91.079  86.053  95.870  1.00  0.00    -0.203 NA
HETATM    3  N   LIG     1      90.813  86.053  98.290  1.00  0.00    -0.153 NA
HETATM    4  H   LIG     1      90.416  86.929 100.148  1.00  0.00     0.189 HD
HETATM    5  N   LIG     1      90.491  87.075  99.150  1.00  0.00    -0.273 N 
HETATM    6  C   LIG     1      90.819  86.623  97.065  1.00  0.00     0.187 A 
HETATM    7  C   LIG     1      90.503  87.978  97.155  1.00  0.00     0.090 A 
HETATM    8  C   LIG     1      90.463  88.745  95.964  1.00  0.00     0.143 A 
HETATM    9  C   LIG     1      90.293  88.275  98.495  1.00  0.00     0.097 A 
HETATM   10  C   LIG     1      91.022  86.846  94.799  1.00  0.00     0.202 A 
ENDROOT
BRANCH   8  11
HETATM   11  N   LIG     1      90.162  90.111  95.870  1.00  0.00    -0.353 N 
HETATM   12  H   LIG     1      89.267  90.424  96.219  1.00  0.00     0.162 HD
BRANCH  11  13
HETATM   13  C   LIG     1      91.168  91.125  95.606  1.00  0.00     0.151 C 
BRANCH  13  14
HETATM   14  C   LIG     1      92.297  91.073  96.583  1.00  0.00     0.100 A 
HETATM   15  C   LIG     1      93.624  90.764  96.460  1.00  0.00     0.024 A 
HETATM   16  C   LIG     1      94.187  90.878  97.761  1.00  0.00     0.029 A 
HETATM   17  C   LIG     1      93.162  91.244  98.585  1.00  0.00     0.122 A 
HETATM   18  O   LIG     1      92.001  91.362  97.884  1.00  0.00    -0.307 OA
ENDBRANCH  13  14
ENDBRANCH  11  13
ENDBRANCH   8  11
TORSDOF 3
ENDMDL
MODEL 5
REMARK VINA RESULT:      -0.0      7.745      9.652
REMARK  3 active torsions:
REMARK  status: ('A' for Active; 'I' for Inactive)
REMARK    1  A    between atoms: C_8  and  N_11 
REMARK    2  A    between atoms: N_11  and  C_13 
REMARK    3  A    between atoms: C_13  and  C_14 
ROOT
HETATM    1  N   LIG     1      84.452  95.957  89.093  1.00  0.00    -0.207 NA
HETATM    2  N   LIG     1      82.785  94.427  88.330  1.00  0.00    -0.203 NA
HETATM    3  N   LIG     1      82.431  92.459  89.719  1.00  0.00    -0.153 NA
HETATM    4  H   LIG     1      82.791  91.217  91.363  1.00  0.00     0.189 HD
HETATM    5  N   LIG     1      83.040  92.074  90.888  1.00  0.00    -0.273 N 
HETATM    6  C   LIG     1      83.019  93.631  89.395  1.00  0.00     0.187 A 
HETATM    7  C   LIG     1      83.978  93.976  90.345  1.00  0.00     0.090 A 
HETATM    8  C   LIG     1      84.705  95.181  90.169  1.00  0.00     0.143 A 
HETATM    9  C   LIG     1      83.998  92.977  91.308  1.00  0.00     0.097 A 
HETATM   10  C   LIG     1      83.513  95.541  88.238  1.00  0.00     0.202 A 
ENDROOT
BRANCH   8  11
HETATM   11  N   LIG     1      85.697  95.681  91.024  1.00  0.00    -0.353 N 
HETATM   12  H   LIG     1      85.449  95.855  91.987  1.00  0.00     0.162 HD
BRANCH  11  13
HETATM   13  C   LIG     1      87.111  95.652  90.692  1.00  0.00     0.151 C 
BRANCH  13  14
HETATM   14  C   LIG     1      87.589  94.278  90.352  1.00  0.00     0.100 A 
HETATM   15  C   LIG     1      88.053  93.710  89.198  1.00  0.00     0.024 A 
HETATM   16  C   LIG     1      88.337  92.350  89.503  1.00  0.00     0.029 A 
HETATM   17  C   LIG     1      88.022  92.186  90.821  1.00  0.00     0.122 A 
HETATM   18  O   LIG     1      87.559  93.350  91.353  1.00  0.00    -0.307 OA
ENDBRANCH  13  14
ENDBRANCH  11  13
ENDBRANCH   8  11
TORSDOF 3
ENDMDL
MODEL 6
REMARK VINA RESULT:       0.0      8.455      9.836
REMARK  3 active torsions:
REMARK  status: ('A' for Active; 'I' for Inactive)
REMARK    1  A    between atoms: C_8  and  N_11 
REMARK    2  A    between atoms: N_11  and  C_13 
REMARK    3  A    between atoms: C_13  and  C_14 
ROOT
HETATM    1  N   LIG     1      94.127  91.518  95.359  1.00  0.00    -0.207 NA
HETATM    2  N   LIG     1      93.949  91.567  97.741  1.00  0.00    -0.203 NA
HETATM    3  N   LIG     1      91.688  91.485  98.641  1.00  0.00    -0.153 NA
HETATM    4  H   LIG     1      89.602  91.390  98.507  1.00  0.00     0.189 HD
HETATM    5  N   LIG     1      90.476  91.416  97.998  1.00  0.00    -0.273 N 
HETATM    6  C   LIG     1      92.604  91.501  97.648  1.00  0.00     0.187 A 
HETATM    7  C   LIG     1      91.977  91.441  96.404  1.00  0.00     0.090 A 
HETATM    8  C   LIG     1      92.783  91.450  95.237  1.00  0.00     0.143 A 
HETATM    9  C   LIG     1      90.607  91.387  96.623  1.00  0.00     0.097 A 
HETATM   10  C   LIG     1      94.632  91.573  96.595  1.00  0.00     0.202 A 
ENDROOT
BRANCH   8  11
HETATM   11  N   LIG     1      92.323  91.391  93.915  1.00  0.00    -0.353 N 
HETATM   12  H   LIG     1      91.764  90.596  93.642  1.00  0.00     0.162 HD
BRANCH  11  13
HETATM   13  C   LIG     1      92.328  92.541  93.026  1.00  0.00     0.151 C 
BRANCH  13  14
HETATM   14  C   LIG     1      91.605  93.712  93.607  1.00  0.00     0.100 A 
HETATM   15  C   LIG     1      92.015  94.949  94.022  1.00  0.00     0.024 A 
HETATM   16  C   LIG     1      90.855  95.619  94.499  1.00  0.00     0.029 A 
HETATM   17  C   LIG     1      89.821  94.741  94.344  1.00  0.00     0.122 A 
HETATM   18  O   LIG     1      90.262  93.571  93.805  1.00  0.00    -0.307 OA
ENDBRANCH  13  14
ENDBRANCH  11  13
ENDBRANCH   8  11
TORSDOF 3
ENDMDL
MODEL 7
REMARK VINA RESULT:       0.0      2.796      4.445
REMARK  3 active torsions:
REMARK  status: ('A' for Active; 'I' for Inactive)
REMARK    1  A    between atoms: C_8  and  N_11 
REMARK    2  A    between atoms: N_11  and  C_13 
REMARK    3  A    between atoms: C_13  and  C_14 
ROOT
HETATM    1  N   LIG     1      88.213  87.279  89.685  1.00  0.00    -0.207 NA
HETATM    2  N   LIG     1      87.953  88.994  91.327  1.00  0.00    -0.203 NA
HETATM    3  N   LIG     1      89.832  89.308  92.844  1.00  0.00    -0.153 NA
HETATM    4  H   LIG     1      91.733  88.891  93.609  1.00  0.00     0.189 HD
HETATM    5  N   LIG     1      91.037  88.653  92.916  1.00  0.00    -0.273 N 
HETATM    6  C   LIG     1      89.182  88.723  91.814  1.00  0.00     0.187 A 
HETATM    7  C   LIG     1      89.968  87.719  91.249  1.00  0.00     0.090 A 
HETATM    8  C   LIG     1      89.448  86.988  90.150  1.00  0.00     0.143 A 
HETATM    9  C   LIG     1      91.162  87.668  91.955  1.00  0.00     0.097 A 
HETATM   10  C   LIG     1      87.538  88.258  90.294  1.00  0.00     0.202 A 
ENDROOT
BRANCH   8  11
HETATM   11  N   LIG     1      90.098  85.954  89.463  1.00  0.00    -0.353 N 
HETATM   12  H   LIG     1      90.988  86.159  89.032  1.00  0.00     0.162 HD
BRANCH  11  13
HETATM   13  C   LIG     1      89.731  84.556  89.610  1.00  0.00     0.151 C 
BRANCH  13  14
HETATM   14  C   LIG     1      89.753  84.109  91.035  1.00  0.00     0.100 A 
HETATM   15  C   LIG     1      88.775  83.702  91.900  1.00  0.00     0.024 A 
HETATM   16  C   LIG     1      89.421  83.419  93.135  1.00  0.00     0.029 A 
HETATM   17  C   LIG     1      90.746  83.678  92.935  1.00  0.00     0.122 A 
HETATM   18  O   LIG     1      90.966  84.104  91.661  1.00  0.00    -0.307 OA
ENDBRANCH  13  14
ENDBRANCH  11  13
ENDBRANCH   8  11
TORSDOF 3
ENDMDL
MODEL 8
REMARK VINA RESULT:       0.0      8.408     10.330
REMARK  3 active torsions:
REMARK  status: ('A' for Active; 'I' for Inactive)
REMARK    1  A    between atoms: C_8  and  N_11 
REMARK    2  A    between atoms: N_11  and  C_13 
REMARK    3  A    between atoms: C_13  and  C_14 
ROOT
HETATM    1  N   LIG     1      90.040  93.653  89.915  1.00  0.00    -0.207 NA
HETATM    2  N   LIG     1      90.309  93.830  92.282  1.00  0.00    -0.203 NA
HETATM    3  N   LIG     1      92.143  95.239  93.042  1.00  0.00    -0.153 NA
HETATM    4  H   LIG     1      93.785  96.509  92.780  1.00  0.00     0.189 HD
HETATM    5  N   LIG     1      93.066  95.961  92.325  1.00  0.00    -0.273 N 
HETATM    6  C   LIG     1      91.365  94.652  92.106  1.00  0.00     0.187 A 
HETATM    7  C   LIG     1      91.792  95.002  90.826  1.00  0.00     0.090 A 
HETATM    8  C   LIG     1      91.092  94.475  89.710  1.00  0.00     0.143 A 
HETATM    9  C   LIG     1      92.888  95.843  90.960  1.00  0.00     0.097 A 
HETATM   10  C   LIG     1      89.708  93.377  91.179  1.00  0.00     0.202 A 
ENDROOT
BRANCH   8  11
HETATM   11  N   LIG     1      91.380  94.723  88.362  1.00  0.00    -0.353 N 
HETATM   12  H   LIG     1      91.367  95.682  88.043  1.00  0.00     0.162 HD
BRANCH  11  13
HETATM   13  C   LIG     1      92.003  93.738  87.493  1.00  0.00     0.151 C 
BRANCH  13  14
HETATM   14  C   LIG     1      93.291  93.225  88.048  1.00  0.00     0.100 A 
HETATM   15  C   LIG     1      93.687  91.998  88.507  1.00  0.00     0.024 A 
HETATM   16  C   LIG     1      95.039  92.140  88.924  1.00  0.00     0.029 A 
HETATM   17  C   LIG     1      95.370  93.445  88.692  1.00  0.00     0.122 A 
HETATM   18  O   LIG     1      94.314  94.122  88.163  1.00  0.00    -0.307 OA
ENDBRANCH  13  14
ENDBRANCH  11  13
ENDBRANCH   8  11
TORSDOF 3
ENDMDL
MODEL 9
REMARK VINA RESULT:       0.0      3.910      5.381
REMARK  3 active torsions:
REMARK  status: ('A' for Active; 'I' for Inactive)
REMARK    1  A    between atoms: C_8  and  N_11 
REMARK    2  A    between atoms: N_11  and  C_13 
REMARK    3  A    between atoms: C_13  and  C_14 
ROOT
HETATM    1  N   LIG     1      87.876  91.605  89.430  1.00  0.00    -0.207 NA
HETATM    2  N   LIG     1      87.762  93.031  91.342  1.00  0.00    -0.203 NA
HETATM    3  N   LIG     1      87.946  91.928  93.505  1.00  0.00    -0.153 NA
HETATM    4  H   LIG     1      88.167  90.279  94.773  1.00  0.00     0.189 HD
HETATM    5  N   LIG     1      88.107  90.600  93.816  1.00  0.00    -0.273 N 
HETATM    6  C   LIG     1      87.909  91.964  92.155  1.00  0.00     0.187 A 
HETATM    7  C   LIG     1      88.046  90.680  91.629  1.00  0.00     0.090 A 
HETATM    8  C   LIG     1      88.027  90.519  90.220  1.00  0.00     0.143 A 
HETATM    9  C   LIG     1      88.172  89.798  92.693  1.00  0.00     0.097 A 
HETATM   10  C   LIG     1      87.753  92.792  90.029  1.00  0.00     0.202 A 
ENDROOT
BRANCH   8  11
HETATM   11  N   LIG     1      88.155  89.309  89.524  1.00  0.00    -0.353 N 
HETATM   12  H   LIG     1      88.990  88.762  89.675  1.00  0.00     0.162 HD
BRANCH  11  13
HETATM   13  C   LIG     1      87.036  88.655  88.867  1.00  0.00     0.151 C 
BRANCH  13  14
HETATM   14  C   LIG     1      85.891  88.416  89.796  1.00  0.00     0.100 A 
HETATM   15  C   LIG     1      84.619  88.917  89.857  1.00  0.00     0.024 A 
HETATM   16  C   LIG     1      84.003  88.314  90.989  1.00  0.00     0.029 A 
HETATM   17  C   LIG     1      84.945  87.493  91.538  1.00  0.00     0.122 A 
HETATM   18  O   LIG     1      86.104  87.547  90.827  1.00  0.00    -0.307 OA
ENDBRANCH  13  14
ENDBRANCH  11  13
ENDBRANCH   8  11
TORSDOF 3
ENDMDL
