MODEL 1
REMARK VINA RESULT:      -0.0      0.000      0.000
REMARK  3 active torsions:
REMARK  status: ('A' for Active; 'I' for Inactive)
REMARK    1  A    between atoms: C_3  and  N_7 
REMARK    2  A    between atoms: C_5  and  S_15 
REMARK    3  A    between atoms: N_8  and  C_9 
ROOT
HETATM    1  C   LIG     1      91.464  89.386  93.641  1.00  0.00     0.022 A 
HETATM    2  C   LIG     1      92.452  88.490  93.187  1.00  0.00     0.015 A 
HETATM    3  C   LIG     1      90.098  89.081  93.472  1.00  0.00     0.103 A 
HETATM    4  C   LIG     1      89.721  87.886  92.814  1.00  0.00     0.022 A 
HETATM    5  C   LIG     1      92.070  87.289  92.555  1.00  0.00     0.104 A 
HETATM    6  C   LIG     1      90.706  86.989  92.360  1.00  0.00     0.015 A 
ENDROOT
BRANCH   3   7
HETATM    7  N   LIG     1      89.132  90.014  93.926  1.00  0.00    -0.148 NA
HETATM    8  N   LIG     1      88.487  89.832  94.991  1.00  0.00    -0.148 NA
BRANCH   8   9
HETATM    9  C   LIG     1      89.015  89.063  96.059  1.00  0.00     0.103 A 
HETATM   10  C   LIG     1      88.530  87.754  96.256  1.00  0.00     0.021 A 
HETATM   11  C   LIG     1      89.021  86.970  97.318  1.00  0.00     0.002 A 
HETATM   12  C   LIG     1      89.989  87.496  98.195  1.00  0.00     0.000 A 
HETATM   13  C   LIG     1      90.465  88.809  98.014  1.00  0.00     0.002 A 
HETATM   14  C   LIG     1      89.975  89.595  96.953  1.00  0.00     0.021 A 
ENDBRANCH   8   9
ENDBRANCH   3   7
BRANCH   5  15
HETATM   15  S   LIG     1      93.326  86.153  91.969  1.00  0.00     0.139 S 
HETATM   16  O   LIG     1      93.138  86.143  90.509  1.00  0.00    -0.591 OA
HETATM   17  O   LIG     1      92.993  84.885  92.637  1.00  0.00    -0.591 OA
HETATM   18  O   LIG     1      94.576  86.779  92.425  1.00  0.00    -0.591 OA
ENDBRANCH   5  15
TORSDOF 3
ENDMDL
MODEL 2
REMARK VINA RESULT:      -0.0      5.296      6.308
REMARK  3 active torsions:
REMARK  status: ('A' for Active; 'I' for Inactive)
REMARK    1  A    between atoms: C_3  and  N_7 
REMARK    2  A    between atoms: C_5  and  S_15 
REMARK    3  A    between atoms: N_8  and  C_9 
ROOT
HETATM    1  C   LIG     1      88.767  88.116  91.981  1.00  0.00     0.022 A 
HETATM    2  C   LIG     1      87.664  88.757  91.385  1.00  0.00     0.015 A 
HETATM    3  C   LIG     1      89.832  87.648  91.183  1.00  0.00     0.103 A 
HETATM    4  C   LIG     1      89.772  87.794  89.777  1.00  0.00     0.022 A 
HETATM    5  C   LIG     1      87.622  88.923  89.986  1.00  0.00     0.104 A 
HETATM    6  C   LIG     1      88.670  88.435  89.179  1.00  0.00     0.015 A 
ENDROOT
BRANCH   3   7
HETATM    7  N   LIG     1      90.918  86.993  91.815  1.00  0.00    -0.148 NA
HETATM    8  N   LIG     1      92.020  87.570  92.002  1.00  0.00    -0.148 NA
BRANCH   8   9
HETATM    9  C   LIG     1      92.110  88.980  92.135  1.00  0.00     0.103 A 
HETATM   10  C   LIG     1      92.586  89.734  91.043  1.00  0.00     0.021 A 
HETATM   11  C   LIG     1      92.703  91.134  91.147  1.00  0.00     0.002 A 
HETATM   12  C   LIG     1      92.357  91.783  92.348  1.00  0.00     0.000 A 
HETATM   13  C   LIG     1      91.897  91.033  93.447  1.00  0.00     0.002 A 
HETATM   14  C   LIG     1      91.779  89.633  93.345  1.00  0.00     0.021 A 
ENDBRANCH   8   9
ENDBRANCH   3   7
BRANCH   5  15
HETATM   15  S   LIG     1      86.214  89.730  89.227  1.00  0.00     0.139 S 
HETATM   16  O   LIG     1      85.603  88.673  88.405  1.00  0.00    -0.591 OA
HETATM   17  O   LIG     1      86.812  90.833  88.458  1.00  0.00    -0.591 OA
HETATM   18  O   LIG     1      85.410  90.151  90.385  1.00  0.00    -0.591 OA
ENDBRANCH   5  15
TORSDOF 3
ENDMDL
MODEL 3
REMARK VINA RESULT:      -0.0      6.562      7.672
REMARK  3 active torsions:
REMARK  status: ('A' for Active; 'I' for Inactive)
REMARK    1  A    between atoms: C_3  and  N_7 
REMARK    2  A    between atoms: C_5  and  S_15 
REMARK    3  A    between atoms: N_8  and  C_9 
ROOT
HETATM    1  C   LIG     1      87.063  88.616  91.314  1.00  0.00     0.022 A 
HETATM    2  C   LIG     1      85.780  88.796  90.762  1.00  0.00     0.015 A 
HETATM    3  C   LIG     1      88.142  88.231  90.492  1.00  0.00     0.103 A 
HETATM    4  C   LIG     1      87.924  87.993  89.114  1.00  0.00     0.022 A 
HETATM    5  C   LIG     1      85.575  88.583  89.384  1.00  0.00     0.104 A 
HETATM    6  C   LIG     1      86.643  88.173  88.560  1.00  0.00     0.015 A 
ENDROOT
BRANCH   3   7
HETATM    7  N   LIG     1      89.416  88.042  91.085  1.00  0.00    -0.148 NA
HETATM    8  N   LIG     1      90.332  88.897  90.969  1.00  0.00    -0.148 NA
BRANCH   8   9
HETATM    9  C   LIG     1      90.047  90.272  90.767  1.00  0.00     0.103 A 
HETATM   10  C   LIG     1      90.205  90.813  89.474  1.00  0.00     0.021 A 
HETATM   11  C   LIG     1      89.946  92.178  89.243  1.00  0.00     0.002 A 
HETATM   12  C   LIG     1      89.541  93.010  90.305  1.00  0.00     0.000 A 
HETATM   13  C   LIG     1      89.398  92.478  91.601  1.00  0.00     0.002 A 
HETATM   14  C   LIG     1      89.656  91.113  91.835  1.00  0.00     0.021 A 
ENDBRANCH   8   9
ENDBRANCH   3   7
BRANCH   5  15
HETATM   15  S   LIG     1      83.941  88.803  88.683  1.00  0.00     0.139 S 
HETATM   16  O   LIG     1      83.571  87.455  88.221  1.00  0.00    -0.591 OA
HETATM   17  O   LIG     1      84.149  89.783  87.605  1.00  0.00    -0.591 OA
HETATM   18  O   LIG     1      83.156  89.299  89.824  1.00  0.00    -0.591 OA
ENDBRANCH   5  15
TORSDOF 3
ENDMDL
MODEL 4
REMARK VINA RESULT:      -0.0      5.432      6.988
REMARK  3 active torsions:
REMARK  status: ('A' for Active; 'I' for Inactive)
REMARK    1  A    between atoms: C_3  and  N_7 
REMARK    2  A    between atoms: C_5  and  S_15 
REMARK    3  A    between atoms: N_8  and  C_9 
ROOT
HETATM    1  C   LIG     1      94.377  86.049  88.271  1.00  0.00     0.022 A 
HETATM    2  C   LIG     1      93.687  86.797  87.298  1.00  0.00     0.015 A 
HETATM    3  C   LIG     1      95.031  86.703  89.337  1.00  0.00     0.103 A 
HETATM    4  C   LIG     1      95.019  88.116  89.407  1.00  0.00     0.022 A 
HETATM    5  C   LIG     1      93.657  88.204  87.388  1.00  0.00     0.104 A 
HETATM    6  C   LIG     1      94.329  88.866  88.435  1.00  0.00     0.015 A 
ENDROOT
BRANCH   3   7
HETATM    7  N   LIG     1      95.731  85.919  90.289  1.00  0.00    -0.148 NA
HETATM    8  N   LIG     1      95.255  85.684  91.429  1.00  0.00    -0.148 NA
BRANCH   8   9
HETATM    9  C   LIG     1      93.856  85.668  91.665  1.00  0.00     0.103 A 
HETATM   10  C   LIG     1      93.265  86.775  92.308  1.00  0.00     0.021 A 
HETATM   11  C   LIG     1      91.882  86.784  92.572  1.00  0.00     0.002 A 
HETATM   12  C   LIG     1      91.086  85.681  92.205  1.00  0.00     0.000 A 
HETATM   13  C   LIG     1      91.674  84.566  91.577  1.00  0.00     0.002 A 
HETATM   14  C   LIG     1      93.057  84.555  91.312  1.00  0.00     0.021 A 
ENDBRANCH   8   9
ENDBRANCH   3   7
BRANCH   5  15
HETATM   15  S   LIG     1      92.786  89.156  86.144  1.00  0.00     0.139 S 
HETATM   16  O   LIG     1      93.850  89.932  85.486  1.00  0.00    -0.591 OA
HETATM   17  O   LIG     1      91.833  89.963  86.922  1.00  0.00    -0.591 OA
HETATM   18  O   LIG     1      92.171  88.118  85.303  1.00  0.00    -0.591 OA
ENDBRANCH   5  15
TORSDOF 3
ENDMDL
MODEL 5
REMARK VINA RESULT:      -0.0      5.331      6.416
REMARK  3 active torsions:
REMARK  status: ('A' for Active; 'I' for Inactive)
REMARK    1  A    between atoms: C_3  and  N_7 
REMARK    2  A    between atoms: C_5  and  S_15 
REMARK    3  A    between atoms: N_8  and  C_9 
ROOT
HETATM    1  C   LIG     1      94.381  85.842  89.544  1.00  0.00     0.022 A 
HETATM    2  C   LIG     1      93.748  86.936  88.923  1.00  0.00     0.015 A 
HETATM    3  C   LIG     1      94.982  85.995  90.811  1.00  0.00     0.103 A 
HETATM    4  C   LIG     1      94.975  87.261  91.443  1.00  0.00     0.022 A 
HETATM    5  C   LIG     1      93.722  88.189  89.570  1.00  0.00     0.104 A 
HETATM    6  C   LIG     1      94.342  88.356  90.825  1.00  0.00     0.015 A 
ENDROOT
BRANCH   3   7
HETATM    7  N   LIG     1      95.625  84.877  91.398  1.00  0.00    -0.148 NA
HETATM    8  N   LIG     1      95.089  84.217  92.325  1.00  0.00    -0.148 NA
BRANCH   8   9
HETATM    9  C   LIG     1      93.679  84.146  92.469  1.00  0.00     0.103 A 
HETATM   10  C   LIG     1      93.062  84.916  93.476  1.00  0.00     0.021 A 
HETATM   11  C   LIG     1      91.666  84.856  93.657  1.00  0.00     0.002 A 
HETATM   12  C   LIG     1      90.885  84.015  92.841  1.00  0.00     0.000 A 
HETATM   13  C   LIG     1      91.498  83.231  91.846  1.00  0.00     0.002 A 
HETATM   14  C   LIG     1      92.893  83.289  91.663  1.00  0.00     0.021 A 
ENDBRANCH   8   9
ENDBRANCH   3   7
BRANCH   5  15
HETATM   15  S   LIG     1      92.924  89.584  88.776  1.00  0.00     0.139 S 
HETATM   16  O   LIG     1      94.025  90.530  88.535  1.00  0.00    -0.591 OA
HETATM   17  O   LIG     1      91.935  90.035  89.768  1.00  0.00    -0.591 OA
HETATM   18  O   LIG     1      92.348  88.987  87.561  1.00  0.00    -0.591 OA
ENDBRANCH   5  15
TORSDOF 3
ENDMDL
MODEL 6
REMARK VINA RESULT:      -0.0      3.262      4.381
REMARK  3 active torsions:
REMARK  status: ('A' for Active; 'I' for Inactive)
REMARK    1  A    between atoms: C_3  and  N_7 
REMARK    2  A    between atoms: C_5  and  S_15 
REMARK    3  A    between atoms: N_8  and  C_9 
ROOT
HETATM    1  C   LIG     1      93.971  87.828  94.051  1.00  0.00     0.022 A 
HETATM    2  C   LIG     1      95.012  87.863  93.103  1.00  0.00     0.015 A 
HETATM    3  C   LIG     1      92.864  88.693  93.921  1.00  0.00     0.103 A 
HETATM    4  C   LIG     1      92.819  89.620  92.854  1.00  0.00     0.022 A 
HETATM    5  C   LIG     1      94.949  88.771  92.027  1.00  0.00     0.104 A 
HETATM    6  C   LIG     1      93.858  89.656  91.905  1.00  0.00     0.015 A 
ENDROOT
BRANCH   3   7
HETATM    7  N   LIG     1      91.843  88.642  94.903  1.00  0.00    -0.148 NA
HETATM    8  N   LIG     1      90.744  88.071  94.684  1.00  0.00    -0.148 NA
BRANCH   8   9
HETATM    9  C   LIG     1      90.629  87.007  93.754  1.00  0.00     0.103 A 
HETATM   10  C   LIG     1      90.056  87.268  92.493  1.00  0.00     0.021 A 
HETATM   11  C   LIG     1      89.912  86.230  91.552  1.00  0.00     0.002 A 
HETATM   12  C   LIG     1      90.329  84.923  91.874  1.00  0.00     0.000 A 
HETATM   13  C   LIG     1      90.885  84.653  93.139  1.00  0.00     0.002 A 
HETATM   14  C   LIG     1      91.030  85.690  94.081  1.00  0.00     0.021 A 
ENDBRANCH   8   9
ENDBRANCH   3   7
BRANCH   5  15
HETATM   15  S   LIG     1      96.278  88.822  90.826  1.00  0.00     0.139 S 
HETATM   16  O   LIG     1      96.854  90.166  90.994  1.00  0.00    -0.591 OA
HETATM   17  O   LIG     1      95.598  88.605  89.539  1.00  0.00    -0.591 OA
HETATM   18  O   LIG     1      97.152  87.720  91.254  1.00  0.00    -0.591 OA
ENDBRANCH   5  15
TORSDOF 3
ENDMDL
MODEL 7
REMARK VINA RESULT:      -0.0      6.987      9.490
REMARK  3 active torsions:
REMARK  status: ('A' for Active; 'I' for Inactive)
REMARK    1  A    between atoms: C_3  and  N_7 
REMARK    2  A    between atoms: C_5  and  S_15 
REMARK    3  A    between atoms: N_8  and  C_9 
ROOT
HETATM    1  C   LIG     1      89.509  87.861  87.750  1.00  0.00     0.022 A 
HETATM    2  C   LIG     1      90.551  88.466  88.479  1.00  0.00     0.015 A 
HETATM    3  C   LIG     1      88.966  88.506  86.619  1.00  0.00     0.103 A 
HETATM    4  C   LIG     1      89.450  89.779  86.238  1.00  0.00     0.022 A 
HETATM    5  C   LIG     1      91.047  89.723  88.078  1.00  0.00     0.104 A 
HETATM    6  C   LIG     1      90.493  90.386  86.964  1.00  0.00     0.015 A 
ENDROOT
BRANCH   3   7
HETATM    7  N   LIG     1      87.906  87.875  85.920  1.00  0.00    -0.148 NA
HETATM    8  N   LIG     1      88.096  87.283  84.827  1.00  0.00    -0.148 NA
BRANCH   8   9
HETATM    9  C   LIG     1      89.353  86.714  84.496  1.00  0.00     0.103 A 
HETATM   10  C   LIG     1      90.182  87.393  83.580  1.00  0.00     0.021 A 
HETATM   11  C   LIG     1      91.429  86.848  83.216  1.00  0.00     0.002 A 
HETATM   12  C   LIG     1      91.846  85.616  83.757  1.00  0.00     0.000 A 
HETATM   13  C   LIG     1      91.014  84.926  84.659  1.00  0.00     0.002 A 
HETATM   14  C   LIG     1      89.766  85.469  85.024  1.00  0.00     0.021 A 
ENDBRANCH   8   9
ENDBRANCH   3   7
BRANCH   5  15
HETATM   15  S   LIG     1      92.367  90.498  89.010  1.00  0.00     0.139 S 
HETATM   16  O   LIG     1      91.746  91.715  89.557  1.00  0.00    -0.591 OA
HETATM   17  O   LIG     1      93.412  90.744  88.003  1.00  0.00    -0.591 OA
HETATM   18  O   LIG     1      92.707  89.477  90.013  1.00  0.00    -0.591 OA
ENDBRANCH   5  15
TORSDOF 3
ENDMDL
MODEL 8
REMARK VINA RESULT:      -0.0      5.161      6.648
REMARK  3 active torsions:
REMARK  status: ('A' for Active; 'I' for Inactive)
REMARK    1  A    between atoms: C_3  and  N_7 
REMARK    2  A    between atoms: C_5  and  S_15 
REMARK    3  A    between atoms: N_8  and  C_9 
ROOT
HETATM    1  C   LIG     1      94.062  85.827  93.073  1.00  0.00     0.022 A 
HETATM    2  C   LIG     1      94.351  84.710  92.266  1.00  0.00     0.015 A 
HETATM    3  C   LIG     1      94.386  85.815  94.445  1.00  0.00     0.103 A 
HETATM    4  C   LIG     1      94.972  84.661  95.018  1.00  0.00     0.022 A 
HETATM    5  C   LIG     1      94.959  83.573  92.837  1.00  0.00     0.104 A 
HETATM    6  C   LIG     1      95.263  83.543  94.214  1.00  0.00     0.015 A 
ENDROOT
BRANCH   3   7
HETATM    7  N   LIG     1      94.065  86.951  95.230  1.00  0.00    -0.148 NA
HETATM    8  N   LIG     1      94.942  87.783  95.578  1.00  0.00    -0.148 NA
BRANCH   8   9
HETATM    9  C   LIG     1      96.118  87.991  94.813  1.00  0.00     0.103 A 
HETATM   10  C   LIG     1      97.330  87.432  95.267  1.00  0.00     0.021 A 
HETATM   11  C   LIG     1      98.519  87.633  94.540  1.00  0.00     0.002 A 
HETATM   12  C   LIG     1      98.503  88.404  93.362  1.00  0.00     0.000 A 
HETATM   13  C   LIG     1      97.299  88.979  92.912  1.00  0.00     0.002 A 
HETATM   14  C   LIG     1      96.109  88.779  93.638  1.00  0.00     0.021 A 
ENDBRANCH   8   9
ENDBRANCH   3   7
BRANCH   5  15
HETATM   15  S   LIG     1      95.319  82.147  91.814  1.00  0.00     0.139 S 
HETATM   16  O   LIG     1      94.464  81.087  92.372  1.00  0.00    -0.591 OA
HETATM   17  O   LIG     1      96.762  81.932  92.003  1.00  0.00    -0.591 OA
HETATM   18  O   LIG     1      94.936  82.601  90.468  1.00  0.00    -0.591 OA
ENDBRANCH   5  15
TORSDOF 3
ENDMDL
MODEL 9
REMARK VINA RESULT:      -0.0      3.702      5.990
REMARK  3 active torsions:
REMARK  status: ('A' for Active; 'I' for Inactive)
REMARK    1  A    between atoms: C_3  and  N_7 
REMARK    2  A    between atoms: C_5  and  S_15 
REMARK    3  A    between atoms: N_8  and  C_9 
ROOT
HETATM    1  C   LIG     1      91.041  84.700  92.230  1.00  0.00     0.022 A 
HETATM    2  C   LIG     1      91.933  85.467  93.003  1.00  0.00     0.015 A 
HETATM    3  C   LIG     1      89.651  84.793  92.449  1.00  0.00     0.103 A 
HETATM    4  C   LIG     1      89.156  85.636  93.472  1.00  0.00     0.022 A 
HETATM    5  C   LIG     1      91.433  86.325  94.004  1.00  0.00     0.104 A 
HETATM    6  C   LIG     1      90.046  86.405  94.246  1.00  0.00     0.015 A 
ENDROOT
BRANCH   3   7
HETATM    7  N   LIG     1      88.783  83.993  91.663  1.00  0.00    -0.148 NA
HETATM    8  N   LIG     1      88.125  84.476  90.706  1.00  0.00    -0.148 NA
BRANCH   8   9
HETATM    9  C   LIG     1      88.574  85.617  89.993  1.00  0.00     0.103 A 
HETATM   10  C   LIG     1      87.962  86.861  90.251  1.00  0.00     0.021 A 
HETATM   11  C   LIG     1      88.373  88.010  89.549  1.00  0.00     0.002 A 
HETATM   12  C   LIG     1      89.388  87.918  88.576  1.00  0.00     0.000 A 
HETATM   13  C   LIG     1      89.990  86.675  88.302  1.00  0.00     0.002 A 
HETATM   14  C   LIG     1      89.581  85.524  89.003  1.00  0.00     0.021 A 
ENDBRANCH   8   9
ENDBRANCH   3   7
BRANCH   5  15
HETATM   15  S   LIG     1      92.568  87.295  94.994  1.00  0.00     0.139 S 
HETATM   16  O   LIG     1      92.386  86.768  96.357  1.00  0.00    -0.591 OA
HETATM   17  O   LIG     1      92.105  88.679  94.807  1.00  0.00    -0.591 OA
HETATM   18  O   LIG     1      93.874  86.995  94.388  1.00  0.00    -0.591 OA
ENDBRANCH   5  15
TORSDOF 3
ENDMDL
