MODEL 1
REMARK VINA RESULT:      -0.0      0.000      0.000
REMARK  3 active torsions:
REMARK  status: ('A' for Active; 'I' for Inactive)
REMARK    1  A    between atoms: C_7  and  N_11 
REMARK    2  A    between atoms: N_11  and  C_13 
REMARK    3  A    between atoms: C_13  and  C_14 
ROOT
HETATM    1  N   LIG     1      85.789  86.059  88.790  1.00  0.00    -0.207 NA
HETATM    2  N   LIG     1      86.608  83.855  88.267  1.00  0.00    -0.205 NA
HETATM    3  N   LIG     1      88.281  83.918  86.439  1.00  0.00    -0.232 N 
HETATM    4  N   LIG     1      88.876  84.845  85.643  1.00  0.00    -0.166 NA
HETATM    5  C   LIG     1      87.377  84.477  87.328  1.00  0.00     0.166 A 
HETATM    6  C   LIG     1      87.415  85.870  87.056  1.00  0.00     0.090 A 
HETATM    7  C   LIG     1      86.555  86.670  87.857  1.00  0.00     0.143 A 
HETATM    8  C   LIG     1      88.372  86.004  85.996  1.00  0.00     0.126 A 
HETATM    9  C   LIG     1      85.857  84.732  88.936  1.00  0.00     0.202 A 
HETATM   10  C   LIG     1      88.648  82.526  86.274  1.00  0.00     0.156 C 
ENDROOT
BRANCH   7  11
HETATM   11  N   LIG     1      86.415  88.060  87.780  1.00  0.00    -0.355 N 
HETATM   12  H   LIG     1      85.720  88.454  87.162  1.00  0.00     0.162 HD
BRANCH  11  13
HETATM   13  C   LIG     1      87.193  88.951  88.623  1.00  0.00     0.126 C 
BRANCH  13  14
HETATM   14  C   LIG     1      88.658  89.014  88.236  1.00  0.00    -0.000 A 
HETATM   15  C   LIG     1      89.043  89.592  87.007  1.00  0.00    -0.002 A 
HETATM   16  C   LIG     1      90.404  89.648  86.646  1.00  0.00    -0.000 A 
HETATM   17  C   LIG     1      91.383  89.123  87.512  1.00  0.00    -0.000 A 
HETATM   18  C   LIG     1      91.003  88.543  88.737  1.00  0.00    -0.000 A 
HETATM   19  C   LIG     1      89.642  88.487  89.098  1.00  0.00    -0.002 A 
ENDBRANCH  13  14
ENDBRANCH  11  13
ENDBRANCH   7  11
TORSDOF 3
ENDMDL
MODEL 2
REMARK VINA RESULT:      -0.0      5.071      6.983
REMARK  3 active torsions:
REMARK  status: ('A' for Active; 'I' for Inactive)
REMARK    1  A    between atoms: C_7  and  N_11 
REMARK    2  A    between atoms: N_11  and  C_13 
REMARK    3  A    between atoms: C_13  and  C_14 
ROOT
HETATM    1  N   LIG     1      91.897  89.182  91.655  1.00  0.00    -0.207 NA
HETATM    2  N   LIG     1      92.147  89.043  89.263  1.00  0.00    -0.205 NA
HETATM    3  N   LIG     1      92.814  86.764  88.552  1.00  0.00    -0.232 N 
HETATM    4  N   LIG     1      93.077  85.560  89.127  1.00  0.00    -0.166 NA
HETATM    5  C   LIG     1      92.474  87.736  89.479  1.00  0.00     0.166 A 
HETATM    6  C   LIG     1      92.535  87.077  90.735  1.00  0.00     0.090 A 
HETATM    7  C   LIG     1      92.221  87.885  91.862  1.00  0.00     0.143 A 
HETATM    8  C   LIG     1      92.918  85.731  90.418  1.00  0.00     0.126 A 
HETATM    9  C   LIG     1      91.880  89.670  90.411  1.00  0.00     0.202 A 
HETATM   10  C   LIG     1      92.910  86.878  87.111  1.00  0.00     0.156 C 
ENDROOT
BRANCH   7  11
HETATM   11  N   LIG     1      92.212  87.468  93.197  1.00  0.00    -0.355 N 
HETATM   12  H   LIG     1      93.055  87.547  93.747  1.00  0.00     0.162 HD
BRANCH  11  13
HETATM   13  C   LIG     1      90.996  86.993  93.837  1.00  0.00     0.126 C 
BRANCH  13  14
HETATM   14  C   LIG     1      90.552  85.631  93.342  1.00  0.00    -0.000 A 
HETATM   15  C   LIG     1      91.329  84.486  93.622  1.00  0.00    -0.002 A 
HETATM   16  C   LIG     1      90.919  83.220  93.160  1.00  0.00    -0.000 A 
HETATM   17  C   LIG     1      89.731  83.095  92.414  1.00  0.00    -0.000 A 
HETATM   18  C   LIG     1      88.955  84.235  92.130  1.00  0.00    -0.000 A 
HETATM   19  C   LIG     1      89.365  85.501  92.592  1.00  0.00    -0.002 A 
ENDBRANCH  13  14
ENDBRANCH  11  13
ENDBRANCH   7  11
TORSDOF 3
ENDMDL
MODEL 3
REMARK VINA RESULT:      -0.0      7.899     10.557
REMARK  3 active torsions:
REMARK  status: ('A' for Active; 'I' for Inactive)
REMARK    1  A    between atoms: C_7  and  N_11 
REMARK    2  A    between atoms: N_11  and  C_13 
REMARK    3  A    between atoms: C_13  and  C_14 
ROOT
HETATM    1  N   LIG     1      97.232  85.315  83.204  1.00  0.00    -0.207 NA
HETATM    2  N   LIG     1      96.584  87.049  84.745  1.00  0.00    -0.205 NA
HETATM    3  N   LIG     1      95.117  86.167  86.538  1.00  0.00    -0.232 N 
HETATM    4  N   LIG     1      94.572  84.978  86.907  1.00  0.00    -0.166 NA
HETATM    5  C   LIG     1      95.891  86.069  85.393  1.00  0.00     0.166 A 
HETATM    6  C   LIG     1      95.815  84.701  85.021  1.00  0.00     0.090 A 
HETATM    7  C   LIG     1      96.543  84.348  83.852  1.00  0.00     0.143 A 
HETATM    8  C   LIG     1      94.975  84.102  86.017  1.00  0.00     0.126 A 
HETATM    9  C   LIG     1      97.213  86.567  83.671  1.00  0.00     0.202 A 
HETATM   10  C   LIG     1      94.841  87.336  87.349  1.00  0.00     0.156 C 
ENDROOT
BRANCH   7  11
HETATM   11  N   LIG     1      96.625  83.070  83.286  1.00  0.00    -0.355 N 
HETATM   12  H   LIG     1      95.948  82.792  82.591  1.00  0.00     0.162 HD
BRANCH  11  13
HETATM   13  C   LIG     1      97.705  82.159  83.619  1.00  0.00     0.126 C 
BRANCH  13  14
HETATM   14  C   LIG     1      97.605  81.599  85.025  1.00  0.00    -0.000 A 
HETATM   15  C   LIG     1      96.554  80.721  85.366  1.00  0.00    -0.002 A 
HETATM   16  C   LIG     1      96.458  80.203  86.673  1.00  0.00    -0.000 A 
HETATM   17  C   LIG     1      97.412  80.564  87.644  1.00  0.00    -0.000 A 
HETATM   18  C   LIG     1      98.460  81.443  87.309  1.00  0.00    -0.000 A 
HETATM   19  C   LIG     1      98.556  81.960  86.002  1.00  0.00    -0.002 A 
ENDBRANCH  13  14
ENDBRANCH  11  13
ENDBRANCH   7  11
TORSDOF 3
ENDMDL
MODEL 4
REMARK VINA RESULT:      -0.0      3.929      5.599
REMARK  3 active torsions:
REMARK  status: ('A' for Active; 'I' for Inactive)
REMARK    1  A    between atoms: C_7  and  N_11 
REMARK    2  A    between atoms: N_11  and  C_13 
REMARK    3  A    between atoms: C_13  and  C_14 
ROOT
HETATM    1  N   LIG     1      90.834  89.601  88.938  1.00  0.00    -0.207 NA
HETATM    2  N   LIG     1      90.748  87.645  87.534  1.00  0.00    -0.205 NA
HETATM    3  N   LIG     1      90.623  88.255  85.135  1.00  0.00    -0.232 N 
HETATM    4  N   LIG     1      90.593  89.384  84.377  1.00  0.00    -0.166 NA
HETATM    5  C   LIG     1      90.698  88.524  86.493  1.00  0.00     0.166 A 
HETATM    6  C   LIG     1      90.711  89.941  86.581  1.00  0.00     0.090 A 
HETATM    7  C   LIG     1      90.784  90.467  87.900  1.00  0.00     0.143 A 
HETATM    8  C   LIG     1      90.642  90.388  85.220  1.00  0.00     0.126 A 
HETATM    9  C   LIG     1      90.814  88.285  88.704  1.00  0.00     0.202 A 
HETATM   10  C   LIG     1      90.583  86.971  84.465  1.00  0.00     0.156 C 
ENDROOT
BRANCH   7  11
HETATM   11  N   LIG     1      90.811  91.823  88.246  1.00  0.00    -0.355 N 
HETATM   12  H   LIG     1      89.942  92.307  88.417  1.00  0.00     0.162 HD
BRANCH  11  13
HETATM   13  C   LIG     1      92.063  92.533  88.439  1.00  0.00     0.126 C 
BRANCH  13  14
HETATM   14  C   LIG     1      92.815  92.783  87.147  1.00  0.00    -0.000 A 
HETATM   15  C   LIG     1      92.288  93.663  86.177  1.00  0.00    -0.002 A 
HETATM   16  C   LIG     1      92.986  93.892  84.974  1.00  0.00    -0.000 A 
HETATM   17  C   LIG     1      94.212  93.240  84.737  1.00  0.00    -0.000 A 
HETATM   18  C   LIG     1      94.739  92.360  85.700  1.00  0.00    -0.000 A 
HETATM   19  C   LIG     1      94.042  92.130  86.903  1.00  0.00    -0.002 A 
ENDBRANCH  13  14
ENDBRANCH  11  13
ENDBRANCH   7  11
TORSDOF 3
ENDMDL
MODEL 5
REMARK VINA RESULT:      -0.0      7.754      9.889
REMARK  3 active torsions:
REMARK  status: ('A' for Active; 'I' for Inactive)
REMARK    1  A    between atoms: C_7  and  N_11 
REMARK    2  A    between atoms: N_11  and  C_13 
REMARK    3  A    between atoms: C_13  and  C_14 
ROOT
HETATM    1  N   LIG     1      94.401  93.685  91.786  1.00  0.00    -0.207 NA
HETATM    2  N   LIG     1      93.741  95.171  90.009  1.00  0.00    -0.205 NA
HETATM    3  N   LIG     1      91.573  94.492  89.017  1.00  0.00    -0.232 N 
HETATM    4  N   LIG     1      90.641  93.518  89.190  1.00  0.00    -0.166 NA
HETATM    5  C   LIG     1      92.638  94.376  89.896  1.00  0.00     0.166 A 
HETATM    6  C   LIG     1      92.340  93.229  90.678  1.00  0.00     0.090 A 
HETATM    7  C   LIG     1      93.305  92.901  91.669  1.00  0.00     0.143 A 
HETATM    8  C   LIG     1      91.083  92.763  90.168  1.00  0.00     0.126 A 
HETATM    9  C   LIG     1      94.551  94.738  90.978  1.00  0.00     0.202 A 
HETATM   10  C   LIG     1      91.350  95.489  87.989  1.00  0.00     0.156 C 
ENDROOT
BRANCH   7  11
HETATM   11  N   LIG     1      93.238  91.823  92.559  1.00  0.00    -0.355 N 
HETATM   12  H   LIG     1      93.640  90.936  92.294  1.00  0.00     0.162 HD
BRANCH  11  13
HETATM   13  C   LIG     1      92.669  91.969  93.888  1.00  0.00     0.126 C 
BRANCH  13  14
HETATM   14  C   LIG     1      91.162  92.139  93.879  1.00  0.00    -0.000 A 
HETATM   15  C   LIG     1      90.331  91.073  93.473  1.00  0.00    -0.002 A 
HETATM   16  C   LIG     1      88.930  91.231  93.462  1.00  0.00    -0.000 A 
HETATM   17  C   LIG     1      88.358  92.456  93.854  1.00  0.00    -0.000 A 
HETATM   18  C   LIG     1      89.184  93.523  94.257  1.00  0.00    -0.000 A 
HETATM   19  C   LIG     1      90.584  93.365  94.268  1.00  0.00    -0.002 A 
ENDBRANCH  13  14
ENDBRANCH  11  13
ENDBRANCH   7  11
TORSDOF 3
ENDMDL
MODEL 6
REMARK VINA RESULT:      -0.0      6.425      8.533
REMARK  3 active torsions:
REMARK  status: ('A' for Active; 'I' for Inactive)
REMARK    1  A    between atoms: C_7  and  N_11 
REMARK    2  A    between atoms: N_11  and  C_13 
REMARK    3  A    between atoms: C_13  and  C_14 
ROOT
HETATM    1  N   LIG     1      92.147  83.294  91.422  1.00  0.00    -0.207 NA
HETATM    2  N   LIG     1      93.068  82.406  93.463  1.00  0.00    -0.205 NA
HETATM    3  N   LIG     1      91.421  82.491  95.314  1.00  0.00    -0.232 N 
HETATM    4  N   LIG     1      90.137  82.893  95.509  1.00  0.00    -0.166 NA
HETATM    5  C   LIG     1      91.852  82.691  94.012  1.00  0.00     0.166 A 
HETATM    6  C   LIG     1      90.740  83.271  93.347  1.00  0.00     0.090 A 
HETATM    7  C   LIG     1      90.944  83.573  91.973  1.00  0.00     0.143 A 
HETATM    8  C   LIG     1      89.722  83.358  94.354  1.00  0.00     0.126 A 
HETATM    9  C   LIG     1      93.107  82.745  92.173  1.00  0.00     0.202 A 
HETATM   10  C   LIG     1      92.146  81.923  96.433  1.00  0.00     0.156 C 
ENDROOT
BRANCH   7  11
HETATM   11  N   LIG     1      90.004  84.145  91.107  1.00  0.00    -0.355 N 
HETATM   12  H   LIG     1      89.958  85.150  91.020  1.00  0.00     0.162 HD
BRANCH  11  13
HETATM   13  C   LIG     1      89.142  83.326  90.273  1.00  0.00     0.126 C 
BRANCH  13  14
HETATM   14  C   LIG     1      88.070  82.594  91.057  1.00  0.00    -0.000 A 
HETATM   15  C   LIG     1      87.034  83.315  91.687  1.00  0.00    -0.002 A 
HETATM   16  C   LIG     1      86.039  82.636  92.418  1.00  0.00    -0.000 A 
HETATM   17  C   LIG     1      86.080  81.232  92.524  1.00  0.00    -0.000 A 
HETATM   18  C   LIG     1      87.114  80.508  91.899  1.00  0.00    -0.000 A 
HETATM   19  C   LIG     1      88.108  81.188  91.168  1.00  0.00    -0.002 A 
ENDBRANCH  13  14
ENDBRANCH  11  13
ENDBRANCH   7  11
TORSDOF 3
ENDMDL
MODEL 7
REMARK VINA RESULT:      -0.0      4.764      6.573
REMARK  3 active torsions:
REMARK  status: ('A' for Active; 'I' for Inactive)
REMARK    1  A    between atoms: C_7  and  N_11 
REMARK    2  A    between atoms: N_11  and  C_13 
REMARK    3  A    between atoms: C_13  and  C_14 
ROOT
HETATM    1  N   LIG     1      90.995  90.063  90.892  1.00  0.00    -0.207 NA
HETATM    2  N   LIG     1      90.861  90.225  88.493  1.00  0.00    -0.205 NA
HETATM    3  N   LIG     1      92.379  88.607  87.388  1.00  0.00    -0.232 N 
HETATM    4  N   LIG     1      93.270  87.646  87.749  1.00  0.00    -0.166 NA
HETATM    5  C   LIG     1      91.791  89.228  88.479  1.00  0.00     0.166 A 
HETATM    6  C   LIG     1      92.371  88.598  89.611  1.00  0.00     0.090 A 
HETATM    7  C   LIG     1      91.918  89.074  90.871  1.00  0.00     0.143 A 
HETATM    8  C   LIG     1      93.276  87.630  89.061  1.00  0.00     0.126 A 
HETATM    9  C   LIG     1      90.535  90.565  89.742  1.00  0.00     0.202 A 
HETATM   10  C   LIG     1      92.158  88.852  85.977  1.00  0.00     0.156 C 
ENDROOT
BRANCH   7  11
HETATM   11  N   LIG     1      92.337  88.615  92.125  1.00  0.00    -0.355 N 
HETATM   12  H   LIG     1      93.127  89.054  92.575  1.00  0.00     0.162 HD
BRANCH  11  13
HETATM   13  C   LIG     1      91.616  87.570  92.832  1.00  0.00     0.126 C 
BRANCH  13  14
HETATM   14  C   LIG     1      91.780  86.200  92.204  1.00  0.00    -0.000 A 
HETATM   15  C   LIG     1      93.037  85.557  92.222  1.00  0.00    -0.002 A 
HETATM   16  C   LIG     1      93.191  84.285  91.636  1.00  0.00    -0.000 A 
HETATM   17  C   LIG     1      92.088  83.653  91.028  1.00  0.00    -0.000 A 
HETATM   18  C   LIG     1      90.834  84.292  91.006  1.00  0.00    -0.000 A 
HETATM   19  C   LIG     1      90.680  85.564  91.592  1.00  0.00    -0.002 A 
ENDBRANCH  13  14
ENDBRANCH  11  13
ENDBRANCH   7  11
TORSDOF 3
ENDMDL
MODEL 8
REMARK VINA RESULT:      -0.0      6.699      9.169
REMARK  3 active torsions:
REMARK  status: ('A' for Active; 'I' for Inactive)
REMARK    1  A    between atoms: C_7  and  N_11 
REMARK    2  A    between atoms: N_11  and  C_13 
REMARK    3  A    between atoms: C_13  and  C_14 
ROOT
HETATM    1  N   LIG     1      96.712  86.948  90.591  1.00  0.00    -0.207 NA
HETATM    2  N   LIG     1      97.474  88.375  92.375  1.00  0.00    -0.205 NA
HETATM    3  N   LIG     1      96.740  90.719  92.039  1.00  0.00    -0.232 N 
HETATM    4  N   LIG     1      96.023  91.435  91.133  1.00  0.00    -0.166 NA
HETATM    5  C   LIG     1      96.839  89.378  91.704  1.00  0.00     0.166 A 
HETATM    6  C   LIG     1      96.123  89.256  90.483  1.00  0.00     0.090 A 
HETATM    7  C   LIG     1      96.084  87.947  89.930  1.00  0.00     0.143 A 
HETATM    8  C   LIG     1      95.653  90.582  90.207  1.00  0.00     0.126 A 
HETATM    9  C   LIG     1      97.350  87.210  91.736  1.00  0.00     0.202 A 
HETATM   10  C   LIG     1      97.283  91.408  93.193  1.00  0.00     0.156 C 
ENDROOT
BRANCH   7  11
HETATM   11  N   LIG     1      95.445  87.574  88.742  1.00  0.00    -0.355 N 
HETATM   12  H   LIG     1      95.957  87.606  87.873  1.00  0.00     0.162 HD
BRANCH  11  13
HETATM   13  C   LIG     1      94.083  87.067  88.738  1.00  0.00     0.126 C 
BRANCH  13  14
HETATM   14  C   LIG     1      93.047  88.134  89.035  1.00  0.00    -0.000 A 
HETATM   15  C   LIG     1      92.823  89.181  88.115  1.00  0.00    -0.002 A 
HETATM   16  C   LIG     1      91.863  90.174  88.392  1.00  0.00    -0.000 A 
HETATM   17  C   LIG     1      91.124  90.124  89.590  1.00  0.00    -0.000 A 
HETATM   18  C   LIG     1      91.346  89.083  90.511  1.00  0.00    -0.000 A 
HETATM   19  C   LIG     1      92.307  88.089  90.235  1.00  0.00    -0.002 A 
ENDBRANCH  13  14
ENDBRANCH  11  13
ENDBRANCH   7  11
TORSDOF 3
ENDMDL
MODEL 9
REMARK VINA RESULT:      -0.0      4.294      5.599
REMARK  3 active torsions:
REMARK  status: ('A' for Active; 'I' for Inactive)
REMARK    1  A    between atoms: C_7  and  N_11 
REMARK    2  A    between atoms: N_11  and  C_13 
REMARK    3  A    between atoms: C_13  and  C_14 
ROOT
HETATM    1  N   LIG     1      88.654  88.697  89.602  1.00  0.00    -0.207 NA
HETATM    2  N   LIG     1      89.075  86.844  88.123  1.00  0.00    -0.205 NA
HETATM    3  N   LIG     1      90.550  85.156  89.180  1.00  0.00    -0.232 N 
HETATM    4  N   LIG     1      91.191  84.971  90.364  1.00  0.00    -0.166 NA
HETATM    5  C   LIG     1      89.832  86.341  89.139  1.00  0.00     0.166 A 
HETATM    6  C   LIG     1      90.052  86.941  90.406  1.00  0.00     0.090 A 
HETATM    7  C   LIG     1      89.406  88.192  90.606  1.00  0.00     0.143 A 
HETATM    8  C   LIG     1      90.907  86.021  91.099  1.00  0.00     0.126 A 
HETATM    9  C   LIG     1      88.535  88.018  88.457  1.00  0.00     0.202 A 
HETATM   10  C   LIG     1      90.682  84.139  88.156  1.00  0.00     0.156 C 
ENDROOT
BRANCH   7  11
HETATM   11  N   LIG     1      89.468  88.975  91.764  1.00  0.00    -0.355 N 
HETATM   12  H   LIG     1      90.195  89.671  91.854  1.00  0.00     0.162 HD
BRANCH  11  13
HETATM   13  C   LIG     1      88.467  88.866  92.811  1.00  0.00     0.126 C 
BRANCH  13  14
HETATM   14  C   LIG     1      88.566  87.576  93.602  1.00  0.00    -0.000 A 
HETATM   15  C   LIG     1      89.683  87.337  94.433  1.00  0.00    -0.002 A 
HETATM   16  C   LIG     1      89.777  86.137  95.165  1.00  0.00    -0.000 A 
HETATM   17  C   LIG     1      88.756  85.171  95.068  1.00  0.00    -0.000 A 
HETATM   18  C   LIG     1      87.643  85.405  94.239  1.00  0.00    -0.000 A 
HETATM   19  C   LIG     1      87.548  86.605  93.506  1.00  0.00    -0.002 A 
ENDBRANCH  13  14
ENDBRANCH  11  13
ENDBRANCH   7  11
TORSDOF 3
ENDMDL
