MODEL 1
REMARK VINA RESULT:      -0.0      0.000      0.000
REMARK  4 active torsions:
REMARK  status: ('A' for Active; 'I' for Inactive)
REMARK    1  A    between atoms: N_1  and  C_20 
REMARK    2  A    between atoms: C_20  and  C_21 
REMARK    3  A    between atoms: C_21  and  O_22 
REMARK    4  A    between atoms: O_22  and  C_23 
ROOT
HETATM    1  N   LIG     1      85.542  87.572  86.338  1.00  0.00    -0.308 N 
HETATM    2  N   LIG     1      85.169  86.442  88.867  1.00  0.00    -0.236 NA
HETATM    3  N   LIG     1      85.394  89.729  87.334  1.00  0.00    -0.173 NA
HETATM    4  O   LIG     1      84.890  88.183  91.094  1.00  0.00    -0.265 OA
HETATM    5  N   LIG     1      85.077  89.946  89.678  1.00  0.00    -0.272 N 
HETATM    6  H   LIG     1      84.972  90.567  90.466  1.00  0.00     0.174 HD
HETATM    7  O   LIG     1      85.242  91.766  88.404  1.00  0.00    -0.244 OA
HETATM    8  C   LIG     1      85.482  85.276  85.320  1.00  0.00     0.014 A 
HETATM    9  C   LIG     1      85.441  86.162  86.427  1.00  0.00     0.079 A 
HETATM   10  C   LIG     1      85.382  83.881  85.501  1.00  0.00    -0.024 A 
HETATM   11  C   LIG     1      85.270  85.620  87.730  1.00  0.00     0.097 A 
HETATM   12  C   LIG     1      85.234  83.351  86.803  1.00  0.00    -0.024 A 
HETATM   13  C   LIG     1      85.175  84.226  87.906  1.00  0.00     0.016 A 
HETATM   14  C   LIG     1      85.238  90.539  88.468  1.00  0.00     0.350 A 
HETATM   15  C   LIG     1      85.380  88.430  87.433  1.00  0.00     0.171 A 
HETATM   16  C   LIG     1      85.195  87.717  88.758  1.00  0.00     0.171 A 
HETATM   17  C   LIG     1      85.040  88.623  89.955  1.00  0.00     0.282 A 
HETATM   18  C   LIG     1      85.435  82.968  84.289  1.00  0.00     0.031 C 
HETATM   19  C   LIG     1      85.126  81.854  87.034  1.00  0.00     0.031 C 
ENDROOT
BRANCH   1  20
HETATM   20  C   LIG     1      85.788  88.125  84.998  1.00  0.00     0.140 C 
BRANCH  20  21
HETATM   21  C   LIG     1      87.255  88.528  84.803  1.00  0.00     0.176 C 
BRANCH  21  22
HETATM   22  O   LIG     1      87.930  87.497  84.101  1.00  0.00    -0.300 OA
BRANCH  22  23
HETATM   23  C   LIG     1      88.782  86.697  84.761  1.00  0.00     0.273 C 
HETATM   24  C   LIG     1      88.997  85.366  84.053  1.00  0.00     0.106 C 
HETATM   25  O   LIG     1      89.351  86.962  85.820  1.00  0.00    -0.264 OA
ENDBRANCH  22  23
ENDBRANCH  21  22
ENDBRANCH  20  21
ENDBRANCH   1  20
TORSDOF 4
ENDMDL
MODEL 2
REMARK VINA RESULT:      -0.0      3.474      6.898
REMARK  4 active torsions:
REMARK  status: ('A' for Active; 'I' for Inactive)
REMARK    1  A    between atoms: N_1  and  C_20 
REMARK    2  A    between atoms: C_20  and  C_21 
REMARK    3  A    between atoms: C_21  and  O_22 
REMARK    4  A    between atoms: O_22  and  C_23 
ROOT
HETATM    1  N   LIG     1      88.343  88.359  89.396  1.00  0.00    -0.308 N 
HETATM    2  N   LIG     1      86.904  88.288  87.001  1.00  0.00    -0.236 NA
HETATM    3  N   LIG     1      89.672  86.554  88.594  1.00  0.00    -0.173 NA
HETATM    4  O   LIG     1      87.664  86.391  85.027  1.00  0.00    -0.265 OA
HETATM    5  N   LIG     1      89.278  85.645  86.436  1.00  0.00    -0.272 N 
HETATM    6  H   LIG     1      89.547  84.966  85.739  1.00  0.00     0.174 HD
HETATM    7  O   LIG     1      90.900  84.811  87.716  1.00  0.00    -0.244 OA
HETATM    8  C   LIG     1      86.777  90.120  90.267  1.00  0.00     0.014 A 
HETATM    9  C   LIG     1      87.235  89.231  89.261  1.00  0.00     0.079 A 
HETATM   10  C   LIG     1      85.667  90.961  90.043  1.00  0.00    -0.024 A 
HETATM   11  C   LIG     1      86.537  89.181  88.023  1.00  0.00     0.097 A 
HETATM   12  C   LIG     1      84.993  90.919  88.801  1.00  0.00    -0.024 A 
HETATM   13  C   LIG     1      85.432  90.026  87.803  1.00  0.00     0.016 A 
HETATM   14  C   LIG     1      89.994  85.630  87.590  1.00  0.00     0.350 A 
HETATM   15  C   LIG     1      88.701  87.408  88.432  1.00  0.00     0.171 A 
HETATM   16  C   LIG     1      87.866  87.460  87.169  1.00  0.00     0.171 A 
HETATM   17  C   LIG     1      88.250  86.458  86.107  1.00  0.00     0.282 A 
HETATM   18  C   LIG     1      85.212  91.901  91.145  1.00  0.00     0.031 C 
HETATM   19  C   LIG     1      83.797  91.813  88.526  1.00  0.00     0.031 C 
ENDROOT
BRANCH   1  20
HETATM   20  C   LIG     1      89.103  88.462  90.650  1.00  0.00     0.140 C 
BRANCH  20  21
HETATM   21  C   LIG     1      90.408  89.249  90.468  1.00  0.00     0.176 C 
BRANCH  21  22
HETATM   22  O   LIG     1      90.209  90.583  90.907  1.00  0.00    -0.300 OA
BRANCH  22  23
HETATM   23  C   LIG     1      90.102  91.567  90.001  1.00  0.00     0.273 C 
HETATM   24  C   LIG     1      89.378  92.788  90.553  1.00  0.00     0.106 C 
HETATM   25  O   LIG     1      90.522  91.536  88.845  1.00  0.00    -0.264 OA
ENDBRANCH  22  23
ENDBRANCH  21  22
ENDBRANCH  20  21
ENDBRANCH   1  20
TORSDOF 4
ENDMDL
MODEL 3
REMARK VINA RESULT:      -0.0      7.108     10.494
REMARK  4 active torsions:
REMARK  status: ('A' for Active; 'I' for Inactive)
REMARK    1  A    between atoms: N_1  and  C_20 
REMARK    2  A    between atoms: C_20  and  C_21 
REMARK    3  A    between atoms: C_21  and  O_22 
REMARK    4  A    between atoms: O_22  and  C_23 
ROOT
HETATM    1  N   LIG     1      87.023  89.402  95.982  1.00  0.00    -0.308 N 
HETATM    2  N   LIG     1      87.112  89.230  93.193  1.00  0.00    -0.236 NA
HETATM    3  N   LIG     1      84.923  88.282  95.935  1.00  0.00    -0.173 NA
HETATM    4  O   LIG     1      84.970  87.929  91.854  1.00  0.00    -0.265 OA
HETATM    5  N   LIG     1      83.983  87.587  93.868  1.00  0.00    -0.272 N 
HETATM    6  H   LIG     1      83.218  87.130  93.395  1.00  0.00     0.174 HD
HETATM    7  O   LIG     1      82.901  87.186  95.773  1.00  0.00    -0.244 OA
HETATM    8  C   LIG     1      89.137  90.760  95.950  1.00  0.00     0.014 A 
HETATM    9  C   LIG     1      88.105  90.024  95.312  1.00  0.00     0.079 A 
HETATM   10  C   LIG     1      90.184  91.340  95.203  1.00  0.00    -0.024 A 
HETATM   11  C   LIG     1      88.129  89.901  93.895  1.00  0.00     0.097 A 
HETATM   12  C   LIG     1      90.209  91.194  93.798  1.00  0.00    -0.024 A 
HETATM   13  C   LIG     1      89.178  90.479  93.155  1.00  0.00     0.016 A 
HETATM   14  C   LIG     1      83.888  87.663  95.220  1.00  0.00     0.350 A 
HETATM   15  C   LIG     1      85.956  88.782  95.318  1.00  0.00     0.171 A 
HETATM   16  C   LIG     1      86.107  88.733  93.812  1.00  0.00     0.171 A 
HETATM   17  C   LIG     1      84.978  88.050  93.078  1.00  0.00     0.282 A 
HETATM   18  C   LIG     1      91.270  92.116  95.926  1.00  0.00     0.031 C 
HETATM   19  C   LIG     1      91.323  91.804  92.965  1.00  0.00     0.031 C 
ENDROOT
BRANCH   1  20
HETATM   20  C   LIG     1      87.039  89.471  97.450  1.00  0.00     0.140 C 
BRANCH  20  21
HETATM   21  C   LIG     1      87.510  88.155  98.083  1.00  0.00     0.176 C 
BRANCH  21  22
HETATM   22  O   LIG     1      88.880  88.270  98.428  1.00  0.00    -0.300 OA
BRANCH  22  23
HETATM   23  C   LIG     1      89.802  87.636  97.688  1.00  0.00     0.273 C 
HETATM   24  C   LIG     1      91.185  88.258  97.824  1.00  0.00     0.106 C 
HETATM   25  O   LIG     1      89.605  86.659  96.965  1.00  0.00    -0.264 OA
ENDBRANCH  22  23
ENDBRANCH  21  22
ENDBRANCH  20  21
ENDBRANCH   1  20
TORSDOF 4
ENDMDL
MODEL 4
REMARK VINA RESULT:      -0.0      6.928      8.849
REMARK  4 active torsions:
REMARK  status: ('A' for Active; 'I' for Inactive)
REMARK    1  A    between atoms: N_1  and  C_20 
REMARK    2  A    between atoms: C_20  and  C_21 
REMARK    3  A    between atoms: C_21  and  O_22 
REMARK    4  A    between atoms: O_22  and  C_23 
ROOT
HETATM    1  N   LIG     1      85.184  91.628  93.037  1.00  0.00    -0.308 N 
HETATM    2  N   LIG     1      83.271  92.918  91.459  1.00  0.00    -0.236 NA
HETATM    3  N   LIG     1      86.152  93.750  93.512  1.00  0.00    -0.173 NA
HETATM    4  O   LIG     1      83.370  95.751  91.267  1.00  0.00    -0.265 OA
HETATM    5  N   LIG     1      85.200  95.729  92.608  1.00  0.00    -0.272 N 
HETATM    6  H   LIG     1      85.242  96.735  92.536  1.00  0.00     0.174 HD
HETATM    7  O   LIG     1      87.003  95.856  93.911  1.00  0.00    -0.244 OA
HETATM    8  C   LIG     1      84.244  89.407  92.333  1.00  0.00     0.014 A 
HETATM    9  C   LIG     1      84.256  90.826  92.329  1.00  0.00     0.079 A 
HETATM   10  C   LIG     1      83.275  88.686  91.603  1.00  0.00    -0.024 A 
HETATM   11  C   LIG     1      83.285  91.515  91.551  1.00  0.00     0.097 A 
HETATM   12  C   LIG     1      82.302  89.382  90.850  1.00  0.00    -0.024 A 
HETATM   13  C   LIG     1      82.318  90.790  90.827  1.00  0.00     0.016 A 
HETATM   14  C   LIG     1      86.160  95.145  93.370  1.00  0.00     0.350 A 
HETATM   15  C   LIG     1      85.246  93.022  92.922  1.00  0.00     0.171 A 
HETATM   16  C   LIG     1      84.160  93.623  92.053  1.00  0.00     0.171 A 
HETATM   17  C   LIG     1      84.195  95.127  91.933  1.00  0.00     0.282 A 
HETATM   18  C   LIG     1      83.296  87.168  91.638  1.00  0.00     0.031 C 
HETATM   19  C   LIG     1      81.244  88.636  90.056  1.00  0.00     0.031 C 
ENDROOT
BRANCH   1  20
HETATM   20  C   LIG     1      86.141  90.915  93.894  1.00  0.00     0.140 C 
BRANCH  20  21
HETATM   21  C   LIG     1      85.745  90.978  95.375  1.00  0.00     0.176 C 
BRANCH  21  22
HETATM   22  O   LIG     1      85.088  89.774  95.733  1.00  0.00    -0.300 OA
BRANCH  22  23
HETATM   23  C   LIG     1      83.760  89.777  95.917  1.00  0.00     0.273 C 
HETATM   24  C   LIG     1      83.148  88.391  95.759  1.00  0.00     0.106 C 
HETATM   25  O   LIG     1      83.067  90.758  96.186  1.00  0.00    -0.264 OA
ENDBRANCH  22  23
ENDBRANCH  21  22
ENDBRANCH  20  21
ENDBRANCH   1  20
TORSDOF 4
ENDMDL
MODEL 5
REMARK VINA RESULT:      -0.0      7.440     10.988
REMARK  4 active torsions:
REMARK  status: ('A' for Active; 'I' for Inactive)
REMARK    1  A    between atoms: N_1  and  C_20 
REMARK    2  A    between atoms: C_20  and  C_21 
REMARK    3  A    between atoms: C_21  and  O_22 
REMARK    4  A    between atoms: O_22  and  C_23 
ROOT
HETATM    1  N   LIG     1      90.667  93.994  89.000  1.00  0.00    -0.308 N 
HETATM    2  N   LIG     1      92.473  92.466  90.488  1.00  0.00    -0.236 NA
HETATM    3  N   LIG     1      89.963  92.004  87.901  1.00  0.00    -0.173 NA
HETATM    4  O   LIG     1      92.537  89.658  90.059  1.00  0.00    -0.265 OA
HETATM    5  N   LIG     1      90.928  89.912  88.480  1.00  0.00    -0.272 N 
HETATM    6  H   LIG     1      90.952  88.916  88.321  1.00  0.00     0.174 HD
HETATM    7  O   LIG     1      89.354  90.015  86.906  1.00  0.00    -0.244 OA
HETATM    8  C   LIG     1      91.596  96.082  90.045  1.00  0.00     0.014 A 
HETATM    9  C   LIG     1      91.543  94.673  89.882  1.00  0.00     0.079 A 
HETATM   10  C   LIG     1      92.496  96.675  90.956  1.00  0.00    -0.024 A 
HETATM   11  C   LIG     1      92.436  93.864  90.637  1.00  0.00     0.097 A 
HETATM   12  C   LIG     1      93.365  95.859  91.716  1.00  0.00    -0.024 A 
HETATM   13  C   LIG     1      93.330  94.460  91.547  1.00  0.00     0.016 A 
HETATM   14  C   LIG     1      90.048  90.616  87.722  1.00  0.00     0.350 A 
HETATM   15  C   LIG     1      90.716  92.614  88.772  1.00  0.00     0.171 A 
HETATM   16  C   LIG     1      91.720  91.877  89.636  1.00  0.00     0.171 A 
HETATM   17  C   LIG     1      91.775  90.384  89.422  1.00  0.00     0.282 A 
HETATM   18  C   LIG     1      92.518  98.186  91.102  1.00  0.00     0.031 C 
HETATM   19  C   LIG     1      94.344  96.465  92.706  1.00  0.00     0.031 C 
ENDROOT
BRANCH   1  20
HETATM   20  C   LIG     1      89.699  94.828  88.274  1.00  0.00     0.140 C 
BRANCH  20  21
HETATM   21  C   LIG     1      88.297  94.754  88.893  1.00  0.00     0.176 C 
BRANCH  21  22
HETATM   22  O   LIG     1      88.094  95.886  89.721  1.00  0.00    -0.300 OA
BRANCH  22  23
HETATM   23  C   LIG     1      88.120  95.742  91.054  1.00  0.00     0.273 C 
HETATM   24  C   LIG     1      88.425  97.048  91.775  1.00  0.00     0.106 C 
HETATM   25  O   LIG     1      87.925  94.696  91.674  1.00  0.00    -0.264 OA
ENDBRANCH  22  23
ENDBRANCH  21  22
ENDBRANCH  20  21
ENDBRANCH   1  20
TORSDOF 4
ENDMDL
MODEL 6
REMARK VINA RESULT:      -0.0      8.755     10.609
REMARK  4 active torsions:
REMARK  status: ('A' for Active; 'I' for Inactive)
REMARK    1  A    between atoms: N_1  and  C_20 
REMARK    2  A    between atoms: C_20  and  C_21 
REMARK    3  A    between atoms: C_21  and  O_22 
REMARK    4  A    between atoms: O_22  and  C_23 
ROOT
HETATM    1  N   LIG     1      88.000  93.895  92.173  1.00  0.00    -0.308 N 
HETATM    2  N   LIG     1      86.776  96.249  93.052  1.00  0.00    -0.236 NA
HETATM    3  N   LIG     1      89.768  95.209  91.272  1.00  0.00    -0.173 NA
HETATM    4  O   LIG     1      88.090  98.719  92.557  1.00  0.00    -0.265 OA
HETATM    5  N   LIG     1      89.741  97.573  91.505  1.00  0.00    -0.272 N 
HETATM    6  H   LIG     1      90.208  98.449  91.322  1.00  0.00     0.174 HD
HETATM    7  O   LIG     1      91.429  96.578  90.443  1.00  0.00    -0.244 OA
HETATM    8  C   LIG     1      86.008  92.583  92.962  1.00  0.00     0.014 A 
HETATM    9  C   LIG     1      86.727  93.793  92.787  1.00  0.00     0.079 A 
HETATM   10  C   LIG     1      84.746  92.572  93.594  1.00  0.00    -0.024 A 
HETATM   11  C   LIG     1      86.142  95.008  93.239  1.00  0.00     0.097 A 
HETATM   12  C   LIG     1      84.183  93.783  94.058  1.00  0.00    -0.024 A 
HETATM   13  C   LIG     1      84.884  94.991  93.873  1.00  0.00     0.016 A 
HETATM   14  C   LIG     1      90.364  96.458  91.044  1.00  0.00     0.350 A 
HETATM   15  C   LIG     1      88.635  95.115  91.908  1.00  0.00     0.171 A 
HETATM   16  C   LIG     1      87.894  96.328  92.435  1.00  0.00     0.171 A 
HETATM   17  C   LIG     1      88.572  97.651  92.179  1.00  0.00     0.282 A 
HETATM   18  C   LIG     1      84.011  91.255  93.763  1.00  0.00     0.031 C 
HETATM   19  C   LIG     1      82.829  93.806  94.744  1.00  0.00     0.031 C 
ENDROOT
BRANCH   1  20
HETATM   20  C   LIG     1      88.632  92.631  91.770  1.00  0.00     0.140 C 
BRANCH  20  21
HETATM   21  C   LIG     1      89.720  92.191  92.759  1.00  0.00     0.176 C 
BRANCH  21  22
HETATM   22  O   LIG     1      89.183  91.217  93.637  1.00  0.00    -0.300 OA
BRANCH  22  23
HETATM   23  C   LIG     1      88.903  91.554  94.905  1.00  0.00     0.273 C 
HETATM   24  C   LIG     1      87.877  90.624  95.540  1.00  0.00     0.106 C 
HETATM   25  O   LIG     1      89.391  92.495  95.529  1.00  0.00    -0.264 OA
ENDBRANCH  22  23
ENDBRANCH  21  22
ENDBRANCH  20  21
ENDBRANCH   1  20
TORSDOF 4
ENDMDL
MODEL 7
REMARK VINA RESULT:      -0.0      8.699      9.892
REMARK  4 active torsions:
REMARK  status: ('A' for Active; 'I' for Inactive)
REMARK    1  A    between atoms: N_1  and  C_20 
REMARK    2  A    between atoms: C_20  and  C_21 
REMARK    3  A    between atoms: C_21  and  O_22 
REMARK    4  A    between atoms: O_22  and  C_23 
ROOT
HETATM    1  N   LIG     1      92.614  90.288  91.311  1.00  0.00    -0.308 N 
HETATM    2  N   LIG     1      93.683  90.937  93.811  1.00  0.00    -0.236 NA
HETATM    3  N   LIG     1      91.098  92.108  91.541  1.00  0.00    -0.173 NA
HETATM    4  O   LIG     1      92.619  93.181  95.190  1.00  0.00    -0.265 OA
HETATM    5  N   LIG     1      91.166  93.485  93.475  1.00  0.00    -0.272 N 
HETATM    6  H   LIG     1      90.782  94.279  93.965  1.00  0.00     0.174 HD
HETATM    7  O   LIG     1      89.682  93.899  91.865  1.00  0.00    -0.244 OA
HETATM    8  C   LIG     1      94.097  88.262  91.220  1.00  0.00     0.014 A 
HETATM    9  C   LIG     1      93.616  89.440  91.846  1.00  0.00     0.079 A 
HETATM   10  C   LIG     1      95.106  87.480  91.822  1.00  0.00    -0.024 A 
HETATM   11  C   LIG     1      94.150  89.810  93.110  1.00  0.00     0.097 A 
HETATM   12  C   LIG     1      95.645  87.868  93.069  1.00  0.00    -0.024 A 
HETATM   13  C   LIG     1      95.159  89.028  93.705  1.00  0.00     0.016 A 
HETATM   14  C   LIG     1      90.604  93.197  92.273  1.00  0.00     0.350 A 
HETATM   15  C   LIG     1      92.075  91.379  92.003  1.00  0.00     0.171 A 
HETATM   16  C   LIG     1      92.730  91.652  93.341  1.00  0.00     0.171 A 
HETATM   17  C   LIG     1      92.178  92.837  94.094  1.00  0.00     0.282 A 
HETATM   18  C   LIG     1      95.595  86.227  91.116  1.00  0.00     0.031 C 
HETATM   19  C   LIG     1      96.733  87.050  93.743  1.00  0.00     0.031 C 
ENDROOT
BRANCH   1  20
HETATM   20  C   LIG     1      92.114  89.941  89.973  1.00  0.00     0.140 C 
BRANCH  20  21
HETATM   21  C   LIG     1      92.720  90.835  88.883  1.00  0.00     0.176 C 
BRANCH  21  22
HETATM   22  O   LIG     1      93.792  90.146  88.260  1.00  0.00    -0.300 OA
BRANCH  22  23
HETATM   23  C   LIG     1      95.055  90.510  88.528  1.00  0.00     0.273 C 
HETATM   24  C   LIG     1      96.054  89.396  88.244  1.00  0.00     0.106 C 
HETATM   25  O   LIG     1      95.418  91.606  88.954  1.00  0.00    -0.264 OA
ENDBRANCH  22  23
ENDBRANCH  21  22
ENDBRANCH  20  21
ENDBRANCH   1  20
TORSDOF 4
ENDMDL
MODEL 8
REMARK VINA RESULT:      -0.0      6.371      8.055
REMARK  4 active torsions:
REMARK  status: ('A' for Active; 'I' for Inactive)
REMARK    1  A    between atoms: N_1  and  C_20 
REMARK    2  A    between atoms: C_20  and  C_21 
REMARK    3  A    between atoms: C_21  and  O_22 
REMARK    4  A    between atoms: O_22  and  C_23 
ROOT
HETATM    1  N   LIG     1      92.747  88.363  87.944  1.00  0.00    -0.308 N 
HETATM    2  N   LIG     1      91.810  90.941  88.484  1.00  0.00    -0.236 NA
HETATM    3  N   LIG     1      94.961  89.136  88.350  1.00  0.00    -0.173 NA
HETATM    4  O   LIG     1      93.697  92.936  89.210  1.00  0.00    -0.265 OA
HETATM    5  N   LIG     1      95.345  91.396  88.972  1.00  0.00    -0.272 N 
HETATM    6  H   LIG     1      96.019  92.104  89.223  1.00  0.00     0.174 HD
HETATM    7  O   LIG     1      97.061  89.989  88.772  1.00  0.00    -0.244 OA
HETATM    8  C   LIG     1      90.414  87.661  87.328  1.00  0.00     0.014 A 
HETATM    9  C   LIG     1      91.362  88.615  87.780  1.00  0.00     0.079 A 
HETATM   10  C   LIG     1      89.050  87.996  87.202  1.00  0.00    -0.024 A 
HETATM   11  C   LIG     1      90.917  89.931  88.081  1.00  0.00     0.097 A 
HETATM   12  C   LIG     1      88.615  89.302  87.524  1.00  0.00    -0.024 A 
HETATM   13  C   LIG     1      89.553  90.260  87.957  1.00  0.00     0.016 A 
HETATM   14  C   LIG     1      95.848  90.164  88.701  1.00  0.00     0.350 A 
HETATM   15  C   LIG     1      93.678  89.354  88.279  1.00  0.00     0.171 A 
HETATM   16  C   LIG     1      93.067  90.711  88.561  1.00  0.00     0.171 A 
HETATM   17  C   LIG     1      94.052  91.788  88.945  1.00  0.00     0.282 A 
HETATM   18  C   LIG     1      88.068  86.944  86.718  1.00  0.00     0.031 C 
HETATM   19  C   LIG     1      87.153  89.695  87.401  1.00  0.00     0.031 C 
ENDROOT
BRANCH   1  20
HETATM   20  C   LIG     1      93.192  86.984  87.699  1.00  0.00     0.140 C 
BRANCH  20  21
HETATM   21  C   LIG     1      93.427  86.214  89.006  1.00  0.00     0.176 C 
BRANCH  21  22
HETATM   22  O   LIG     1      92.292  85.410  89.281  1.00  0.00    -0.300 OA
BRANCH  22  23
HETATM   23  C   LIG     1      91.448  85.773  90.259  1.00  0.00     0.273 C 
HETATM   24  C   LIG     1      90.063  85.163  90.087  1.00  0.00     0.106 C 
HETATM   25  O   LIG     1      91.712  86.510  91.208  1.00  0.00    -0.264 OA
ENDBRANCH  22  23
ENDBRANCH  21  22
ENDBRANCH  20  21
ENDBRANCH   1  20
TORSDOF 4
ENDMDL
MODEL 9
REMARK VINA RESULT:      -0.0      7.604     10.465
REMARK  4 active torsions:
REMARK  status: ('A' for Active; 'I' for Inactive)
REMARK    1  A    between atoms: N_1  and  C_20 
REMARK    2  A    between atoms: C_20  and  C_21 
REMARK    3  A    between atoms: C_21  and  O_22 
REMARK    4  A    between atoms: O_22  and  C_23 
ROOT
HETATM    1  N   LIG     1      91.412  92.724  86.446  1.00  0.00    -0.308 N 
HETATM    2  N   LIG     1      91.140  95.292  85.377  1.00  0.00    -0.236 NA
HETATM    3  N   LIG     1      89.695  91.983  84.972  1.00  0.00    -0.173 NA
HETATM    4  O   LIG     1      89.246  95.695  83.298  1.00  0.00    -0.265 OA
HETATM    5  N   LIG     1      88.684  93.502  83.453  1.00  0.00    -0.272 N 
HETATM    6  H   LIG     1      88.005  93.643  82.719  1.00  0.00     0.174 HD
HETATM    7  O   LIG     1      88.030  91.373  83.499  1.00  0.00    -0.244 OA
HETATM    8  C   LIG     1      93.067  93.610  88.115  1.00  0.00     0.014 A 
HETATM    9  C   LIG     1      92.185  93.766  87.015  1.00  0.00     0.079 A 
HETATM   10  C   LIG     1      93.807  94.704  88.613  1.00  0.00    -0.024 A 
HETATM   11  C   LIG     1      92.036  95.055  86.435  1.00  0.00     0.097 A 
HETATM   12  C   LIG     1      93.667  95.977  88.016  1.00  0.00    -0.024 A 
HETATM   13  C   LIG     1      92.779  96.143  86.934  1.00  0.00     0.016 A 
HETATM   14  C   LIG     1      88.768  92.243  83.954  1.00  0.00     0.350 A 
HETATM   15  C   LIG     1      90.461  92.929  85.438  1.00  0.00     0.171 A 
HETATM   16  C   LIG     1      90.401  94.352  84.921  1.00  0.00     0.171 A 
HETATM   17  C   LIG     1      89.398  94.590  83.819  1.00  0.00     0.282 A 
HETATM   18  C   LIG     1      94.743  94.493  89.790  1.00  0.00     0.031 C 
HETATM   19  C   LIG     1      94.450  97.174  88.527  1.00  0.00     0.031 C 
ENDROOT
BRANCH   1  20
HETATM   20  C   LIG     1      91.620  91.380  87.002  1.00  0.00     0.140 C 
BRANCH  20  21
HETATM   21  C   LIG     1      92.505  90.513  86.096  1.00  0.00     0.176 C 
BRANCH  21  22
HETATM   22  O   LIG     1      93.832  90.526  86.595  1.00  0.00    -0.300 OA
BRANCH  22  23
HETATM   23  C   LIG     1      94.772  91.236  85.953  1.00  0.00     0.273 C 
HETATM   24  C   LIG     1      95.948  91.591  86.852  1.00  0.00     0.106 C 
HETATM   25  O   LIG     1      94.736  91.585  84.773  1.00  0.00    -0.264 OA
ENDBRANCH  22  23
ENDBRANCH  21  22
ENDBRANCH  20  21
ENDBRANCH   1  20
TORSDOF 4
ENDMDL
