MODEL 1
REMARK VINA RESULT:      -0.0      0.000      0.000
REMARK  6 active torsions:
REMARK  status: ('A' for Active; 'I' for Inactive)
REMARK    1  A    between atoms: C_1  and  C_11 
REMARK    2  A    between atoms: C_1  and  C_20 
REMARK    3  A    between atoms: C_1  and  C_2 
REMARK    4  A    between atoms: C_5  and  N_8 
REMARK    5  A    between atoms: C_14  and  N_17 
REMARK    6  A    between atoms: C_23  and  N_26 
ROOT
HETATM    1  C   LIG     1      95.072  92.603  93.256  1.00  0.00     0.067 C 
ENDROOT
BRANCH   1   2
HETATM    2  C   LIG     1      95.227  91.087  93.145  1.00  0.00    -0.014 A 
HETATM    3  C   LIG     1      94.231  90.333  92.493  1.00  0.00    -0.002 A 
HETATM    4  C   LIG     1      94.348  88.934  92.380  1.00  0.00     0.017 A 
HETATM    5  C   LIG     1      95.464  88.247  92.919  1.00  0.00     0.056 A 
HETATM    6  C   LIG     1      96.458  89.015  93.576  1.00  0.00     0.017 A 
HETATM    7  C   LIG     1      96.343  90.414  93.687  1.00  0.00    -0.002 A 
BRANCH   5   8
HETATM    8  N   LIG     1      95.581  86.841  92.807  1.00  0.00    -0.344 N 
HETATM    9  C   LIG     1      96.776  86.162  93.296  1.00  0.00     0.126 C 
HETATM   10  C   LIG     1      94.509  86.059  92.202  1.00  0.00     0.126 C 
ENDBRANCH   5   8
ENDBRANCH   1   2
BRANCH   1  11
HETATM   11  C   LIG     1      95.701  93.193  94.518  1.00  0.00    -0.014 A 
HETATM   12  C   LIG     1      96.967  93.818  94.493  1.00  0.00    -0.002 A 
HETATM   13  C   LIG     1      97.521  94.357  95.670  1.00  0.00     0.017 A 
HETATM   14  C   LIG     1      96.829  94.290  96.905  1.00  0.00     0.056 A 
HETATM   15  C   LIG     1      95.558  93.662  96.915  1.00  0.00     0.017 A 
HETATM   16  C   LIG     1      95.003  93.123  95.740  1.00  0.00    -0.002 A 
BRANCH  14  17
HETATM   17  N   LIG     1      97.387  94.833  98.087  1.00  0.00    -0.344 N 
HETATM   18  C   LIG     1      98.811  95.138  98.156  1.00  0.00     0.126 C 
HETATM   19  C   LIG     1      96.541  95.095  99.246  1.00  0.00     0.126 C 
ENDBRANCH  14  17
ENDBRANCH   1  11
BRANCH   1  20
HETATM   20  C   LIG     1      95.448  93.352  91.978  1.00  0.00    -0.014 A 
HETATM   21  C   LIG     1      94.775  94.548  91.652  1.00  0.00    -0.002 A 
HETATM   22  C   LIG     1      95.098  95.256  90.478  1.00  0.00     0.023 A 
HETATM   23  C   LIG     1      96.103  94.780  89.604  1.00  0.00     0.127 A 
HETATM   24  C   LIG     1      96.774  93.580  89.932  1.00  0.00     0.023 A 
HETATM   25  C   LIG     1      96.451  92.873  91.105  1.00  0.00    -0.002 A 
BRANCH  23  26
HETATM   26  N   LIG     1      96.442  95.521  88.373  1.00  0.00    -0.114 N 
HETATM   27  O   LIG     1      97.211  94.998  87.573  1.00  0.00    -0.532 OA
HETATM   28  O   LIG     1      95.939  96.627  88.204  1.00  0.00    -0.532 OA
ENDBRANCH  23  26
ENDBRANCH   1  20
TORSDOF 6
ENDMDL
MODEL 2
REMARK VINA RESULT:      -0.0     10.468     12.261
REMARK  6 active torsions:
REMARK  status: ('A' for Active; 'I' for Inactive)
REMARK    1  A    between atoms: C_1  and  C_11 
REMARK    2  A    between atoms: C_1  and  C_20 
REMARK    3  A    between atoms: C_1  and  C_2 
REMARK    4  A    between atoms: C_5  and  N_8 
REMARK    5  A    between atoms: C_14  and  N_17 
REMARK    6  A    between atoms: C_23  and  N_26 
ROOT
HETATM    1  C   LIG     1      84.508  89.715  90.672  1.00  0.00     0.067 C 
ENDROOT
BRANCH   1   2
HETATM    2  C   LIG     1      85.741  89.319  91.484  1.00  0.00    -0.014 A 
HETATM    3  C   LIG     1      85.908  87.979  91.882  1.00  0.00    -0.002 A 
HETATM    4  C   LIG     1      87.032  87.588  92.634  1.00  0.00     0.017 A 
HETATM    5  C   LIG     1      88.023  88.528  93.012  1.00  0.00     0.056 A 
HETATM    6  C   LIG     1      87.843  89.875  92.608  1.00  0.00     0.017 A 
HETATM    7  C   LIG     1      86.719  90.266  91.855  1.00  0.00    -0.002 A 
BRANCH   5   8
HETATM    8  N   LIG     1      89.154  88.136  93.768  1.00  0.00    -0.344 N 
HETATM    9  C   LIG     1      89.317  86.746  94.179  1.00  0.00     0.126 C 
HETATM   10  C   LIG     1      90.165  89.118  94.142  1.00  0.00     0.126 C 
ENDBRANCH   5   8
ENDBRANCH   1   2
BRANCH   1  11
HETATM   11  C   LIG     1      84.029  91.142  90.942  1.00  0.00    -0.014 A 
HETATM   12  C   LIG     1      84.332  92.205  90.063  1.00  0.00    -0.002 A 
HETATM   13  C   LIG     1      83.874  93.508  90.333  1.00  0.00     0.017 A 
HETATM   14  C   LIG     1      83.099  93.790  91.486  1.00  0.00     0.056 A 
HETATM   15  C   LIG     1      82.799  92.713  92.358  1.00  0.00     0.017 A 
HETATM   16  C   LIG     1      83.257  91.410  92.090  1.00  0.00    -0.002 A 
BRANCH  14  17
HETATM   17  N   LIG     1      82.639  95.101  91.756  1.00  0.00    -0.344 N 
HETATM   18  C   LIG     1      81.473  95.311  92.606  1.00  0.00     0.126 C 
HETATM   19  C   LIG     1      83.330  96.254  91.189  1.00  0.00     0.126 C 
ENDBRANCH  14  17
ENDBRANCH   1  11
BRANCH   1  20
HETATM   20  C   LIG     1      84.620  89.379  89.185  1.00  0.00    -0.014 A 
HETATM   21  C   LIG     1      83.457  89.039  88.463  1.00  0.00    -0.002 A 
HETATM   22  C   LIG     1      83.532  88.719  87.093  1.00  0.00     0.023 A 
HETATM   23  C   LIG     1      84.775  88.733  86.417  1.00  0.00     0.127 A 
HETATM   24  C   LIG     1      85.938  89.072  87.145  1.00  0.00     0.023 A 
HETATM   25  C   LIG     1      85.863  89.391  88.514  1.00  0.00    -0.002 A 
BRANCH  23  26
HETATM   26  N   LIG     1      84.855  88.398  84.982  1.00  0.00    -0.114 N 
HETATM   27  O   LIG     1      85.961  88.368  84.452  1.00  0.00    -0.532 OA
HETATM   28  O   LIG     1      83.811  88.163  84.382  1.00  0.00    -0.532 OA
ENDBRANCH  23  26
ENDBRANCH   1  20
TORSDOF 6
ENDMDL
MODEL 3
REMARK VINA RESULT:      -0.0      6.622      8.984
REMARK  6 active torsions:
REMARK  status: ('A' for Active; 'I' for Inactive)
REMARK    1  A    between atoms: C_1  and  C_11 
REMARK    2  A    between atoms: C_1  and  C_20 
REMARK    3  A    between atoms: C_1  and  C_2 
REMARK    4  A    between atoms: C_5  and  N_8 
REMARK    5  A    between atoms: C_14  and  N_17 
REMARK    6  A    between atoms: C_23  and  N_26 
ROOT
HETATM    1  C   LIG     1      90.463  93.184  89.696  1.00  0.00     0.067 C 
ENDROOT
BRANCH   1   2
HETATM    2  C   LIG     1      88.954  93.270  89.467  1.00  0.00    -0.014 A 
HETATM    3  C   LIG     1      88.370  92.543  88.412  1.00  0.00    -0.002 A 
HETATM    4  C   LIG     1      86.983  92.609  88.177  1.00  0.00     0.017 A 
HETATM    5  C   LIG     1      86.139  93.407  88.988  1.00  0.00     0.056 A 
HETATM    6  C   LIG     1      86.739  94.137  90.045  1.00  0.00     0.017 A 
HETATM    7  C   LIG     1      88.125  94.071  90.282  1.00  0.00    -0.002 A 
BRANCH   5   8
HETATM    8  N   LIG     1      84.745  93.473  88.752  1.00  0.00    -0.344 N 
HETATM    9  C   LIG     1      83.896  94.303  89.598  1.00  0.00     0.126 C 
HETATM   10  C   LIG     1      84.147  92.714  87.660  1.00  0.00     0.126 C 
ENDBRANCH   5   8
ENDBRANCH   1   2
BRANCH   1  11
HETATM   11  C   LIG     1      91.072  94.468  90.259  1.00  0.00    -0.014 A 
HETATM   12  C   LIG     1      91.376  94.604  91.631  1.00  0.00    -0.002 A 
HETATM   13  C   LIG     1      91.941  95.796  92.123  1.00  0.00     0.017 A 
HETATM   14  C   LIG     1      92.222  96.885  91.260  1.00  0.00     0.056 A 
HETATM   15  C   LIG     1      91.915  96.734  89.885  1.00  0.00     0.017 A 
HETATM   16  C   LIG     1      91.350  95.543  89.392  1.00  0.00    -0.002 A 
BRANCH  14  17
HETATM   17  N   LIG     1      92.790  98.083  91.755  1.00  0.00    -0.344 N 
HETATM   18  C   LIG     1      93.079  99.191  90.851  1.00  0.00     0.126 C 
HETATM   19  C   LIG     1      93.090  98.222  93.176  1.00  0.00     0.126 C 
ENDBRANCH  14  17
ENDBRANCH   1  11
BRANCH   1  20
HETATM   20  C   LIG     1      90.897  91.922  90.442  1.00  0.00    -0.014 A 
HETATM   21  C   LIG     1      92.156  91.351  90.163  1.00  0.00    -0.002 A 
HETATM   22  C   LIG     1      92.579  90.186  90.832  1.00  0.00     0.023 A 
HETATM   23  C   LIG     1      91.749  89.567  91.796  1.00  0.00     0.127 A 
HETATM   24  C   LIG     1      90.486  90.141  92.071  1.00  0.00     0.023 A 
HETATM   25  C   LIG     1      90.064  91.305  91.402  1.00  0.00    -0.002 A 
BRANCH  23  26
HETATM   26  N   LIG     1      92.191  88.346  92.497  1.00  0.00    -0.114 N 
HETATM   27  O   LIG     1      93.316  87.917  92.264  1.00  0.00    -0.532 OA
HETATM   28  O   LIG     1      91.414  87.814  93.283  1.00  0.00    -0.532 OA
ENDBRANCH  23  26
ENDBRANCH   1  20
TORSDOF 6
ENDMDL
MODEL 4
REMARK VINA RESULT:      -0.0     12.676     16.195
REMARK  6 active torsions:
REMARK  status: ('A' for Active; 'I' for Inactive)
REMARK    1  A    between atoms: C_1  and  C_11 
REMARK    2  A    between atoms: C_1  and  C_20 
REMARK    3  A    between atoms: C_1  and  C_2 
REMARK    4  A    between atoms: C_5  and  N_8 
REMARK    5  A    between atoms: C_14  and  N_17 
REMARK    6  A    between atoms: C_23  and  N_26 
ROOT
HETATM    1  C   LIG     1      85.937  87.968  84.363  1.00  0.00     0.067 C 
ENDROOT
BRANCH   1   2
HETATM    2  C   LIG     1      84.954  88.882  83.630  1.00  0.00    -0.014 A 
HETATM    3  C   LIG     1      84.610  90.125  84.195  1.00  0.00    -0.002 A 
HETATM    4  C   LIG     1      83.704  90.983  83.542  1.00  0.00     0.017 A 
HETATM    5  C   LIG     1      83.114  90.622  82.306  1.00  0.00     0.056 A 
HETATM    6  C   LIG     1      83.466  89.367  81.748  1.00  0.00     0.017 A 
HETATM    7  C   LIG     1      84.372  88.509  82.400  1.00  0.00    -0.002 A 
BRANCH   5   8
HETATM    8  N   LIG     1      82.203  91.484  81.650  1.00  0.00    -0.344 N 
HETATM    9  C   LIG     1      81.850  92.769  82.244  1.00  0.00     0.126 C 
HETATM   10  C   LIG     1      81.611  91.096  80.375  1.00  0.00     0.126 C 
ENDBRANCH   5   8
ENDBRANCH   1   2
BRANCH   1  11
HETATM   11  C   LIG     1      85.671  86.479  84.142  1.00  0.00    -0.014 A 
HETATM   12  C   LIG     1      86.426  85.720  83.222  1.00  0.00    -0.002 A 
HETATM   13  C   LIG     1      86.163  84.348  83.041  1.00  0.00     0.017 A 
HETATM   14  C   LIG     1      85.142  83.694  83.774  1.00  0.00     0.056 A 
HETATM   15  C   LIG     1      84.393  84.467  84.697  1.00  0.00     0.017 A 
HETATM   16  C   LIG     1      84.655  85.838  84.878  1.00  0.00    -0.002 A 
BRANCH  14  17
HETATM   17  N   LIG     1      84.878  82.316  83.592  1.00  0.00    -0.344 N 
HETATM   18  C   LIG     1      83.825  81.659  84.359  1.00  0.00     0.126 C 
HETATM   19  C   LIG     1      85.656  81.539  82.633  1.00  0.00     0.126 C 
ENDBRANCH  14  17
ENDBRANCH   1  11
BRANCH   1  20
HETATM   20  C   LIG     1      87.400  88.363  84.169  1.00  0.00    -0.014 A 
HETATM   21  C   LIG     1      88.325  88.127  85.208  1.00  0.00    -0.002 A 
HETATM   22  C   LIG     1      89.678  88.486  85.059  1.00  0.00     0.023 A 
HETATM   23  C   LIG     1      90.136  89.090  83.865  1.00  0.00     0.127 A 
HETATM   24  C   LIG     1      89.206  89.328  82.826  1.00  0.00     0.023 A 
HETATM   25  C   LIG     1      87.854  88.969  82.976  1.00  0.00    -0.002 A 
BRANCH  23  26
HETATM   26  N   LIG     1      91.554  89.467  83.707  1.00  0.00    -0.114 N 
HETATM   27  O   LIG     1      92.334  89.189  84.613  1.00  0.00    -0.532 OA
HETATM   28  O   LIG     1      91.892  90.040  82.677  1.00  0.00    -0.532 OA
ENDBRANCH  23  26
ENDBRANCH   1  20
TORSDOF 6
ENDMDL
MODEL 5
REMARK VINA RESULT:       0.0      7.731     11.352
REMARK  6 active torsions:
REMARK  status: ('A' for Active; 'I' for Inactive)
REMARK    1  A    between atoms: C_1  and  C_11 
REMARK    2  A    between atoms: C_1  and  C_20 
REMARK    3  A    between atoms: C_1  and  C_2 
REMARK    4  A    between atoms: C_5  and  N_8 
REMARK    5  A    between atoms: C_14  and  N_17 
REMARK    6  A    between atoms: C_23  and  N_26 
ROOT
HETATM    1  C   LIG     1      88.158  89.491  92.434  1.00  0.00     0.067 C 
ENDROOT
BRANCH   1   2
HETATM    2  C   LIG     1      88.729  90.777  93.030  1.00  0.00    -0.014 A 
HETATM    3  C   LIG     1      87.895  91.902  93.181  1.00  0.00    -0.002 A 
HETATM    4  C   LIG     1      88.398  93.100  93.724  1.00  0.00     0.017 A 
HETATM    5  C   LIG     1      89.751  93.209  94.129  1.00  0.00     0.056 A 
HETATM    6  C   LIG     1      90.582  92.071  93.970  1.00  0.00     0.017 A 
HETATM    7  C   LIG     1      90.080  90.873  93.429  1.00  0.00    -0.002 A 
BRANCH   5   8
HETATM    8  N   LIG     1      90.257  94.414  94.675  1.00  0.00    -0.344 N 
HETATM    9  C   LIG     1      89.530  95.665  94.492  1.00  0.00     0.126 C 
HETATM   10  C   LIG     1      91.508  94.413  95.425  1.00  0.00     0.126 C 
ENDBRANCH   5   8
ENDBRANCH   1   2
BRANCH   1  11
HETATM   11  C   LIG     1      89.178  88.679  91.636  1.00  0.00    -0.014 A 
HETATM   12  C   LIG     1      89.820  87.548  92.187  1.00  0.00    -0.002 A 
HETATM   13  C   LIG     1      90.752  86.815  91.429  1.00  0.00     0.017 A 
HETATM   14  C   LIG     1      91.070  87.187  90.098  1.00  0.00     0.056 A 
HETATM   15  C   LIG     1      90.417  88.322  89.556  1.00  0.00     0.017 A 
HETATM   16  C   LIG     1      89.485  89.056  90.314  1.00  0.00    -0.002 A 
BRANCH  14  17
HETATM   17  N   LIG     1      92.008  86.449  89.336  1.00  0.00    -0.344 N 
HETATM   18  C   LIG     1      92.319  86.845  87.968  1.00  0.00     0.126 C 
HETATM   19  C   LIG     1      92.674  85.287  89.915  1.00  0.00     0.126 C 
ENDBRANCH  14  17
ENDBRANCH   1  11
BRANCH   1  20
HETATM   20  C   LIG     1      87.358  88.655  93.433  1.00  0.00    -0.014 A 
HETATM   21  C   LIG     1      86.268  87.886  92.977  1.00  0.00    -0.002 A 
HETATM   22  C   LIG     1      85.511  87.111  93.877  1.00  0.00     0.023 A 
HETATM   23  C   LIG     1      85.830  87.090  95.255  1.00  0.00     0.127 A 
HETATM   24  C   LIG     1      86.922  87.865  95.709  1.00  0.00     0.023 A 
HETATM   25  C   LIG     1      87.678  88.639  94.810  1.00  0.00    -0.002 A 
BRANCH  23  26
HETATM   26  N   LIG     1      85.036  86.279  96.199  1.00  0.00    -0.114 N 
HETATM   27  O   LIG     1      84.023  85.728  95.782  1.00  0.00    -0.532 OA
HETATM   28  O   LIG     1      85.426  86.191  97.359  1.00  0.00    -0.532 OA
ENDBRANCH  23  26
ENDBRANCH   1  20
TORSDOF 6
ENDMDL
MODEL 6
REMARK VINA RESULT:       0.0      7.900     10.805
REMARK  6 active torsions:
REMARK  status: ('A' for Active; 'I' for Inactive)
REMARK    1  A    between atoms: C_1  and  C_11 
REMARK    2  A    between atoms: C_1  and  C_20 
REMARK    3  A    between atoms: C_1  and  C_2 
REMARK    4  A    between atoms: C_5  and  N_8 
REMARK    5  A    between atoms: C_14  and  N_17 
REMARK    6  A    between atoms: C_23  and  N_26 
ROOT
HETATM    1  C   LIG     1      90.176  91.355  87.256  1.00  0.00     0.067 C 
ENDROOT
BRANCH   1   2
HETATM    2  C   LIG     1      89.509  92.727  87.149  1.00  0.00    -0.014 A 
HETATM    3  C   LIG     1      89.837  93.575  86.073  1.00  0.00    -0.002 A 
HETATM    4  C   LIG     1      89.241  94.845  85.954  1.00  0.00     0.017 A 
HETATM    5  C   LIG     1      88.302  95.306  86.909  1.00  0.00     0.056 A 
HETATM    6  C   LIG     1      87.982  94.445  87.989  1.00  0.00     0.017 A 
HETATM    7  C   LIG     1      88.576  93.175  88.108  1.00  0.00    -0.002 A 
BRANCH   5   8
HETATM    8  N   LIG     1      87.703  96.583  86.789  1.00  0.00    -0.344 N 
HETATM    9  C   LIG     1      88.001  97.429  85.639  1.00  0.00     0.126 C 
HETATM   10  C   LIG     1      86.782  97.063  87.814  1.00  0.00     0.126 C 
ENDBRANCH   5   8
ENDBRANCH   1   2
BRANCH   1  11
HETATM   11  C   LIG     1      90.376  90.882  88.696  1.00  0.00    -0.014 A 
HETATM   12  C   LIG     1      89.502  89.953  89.300  1.00  0.00    -0.002 A 
HETATM   13  C   LIG     1      89.713  89.530  90.626  1.00  0.00     0.017 A 
HETATM   14  C   LIG     1      90.804  90.020  91.387  1.00  0.00     0.056 A 
HETATM   15  C   LIG     1      91.676  90.950  90.768  1.00  0.00     0.017 A 
HETATM   16  C   LIG     1      91.465  91.373  89.443  1.00  0.00    -0.002 A 
BRANCH  14  17
HETATM   17  N   LIG     1      91.015  89.594  92.721  1.00  0.00    -0.344 N 
HETATM   18  C   LIG     1      89.933  88.975  93.477  1.00  0.00     0.126 C 
HETATM   19  C   LIG     1      92.320  89.769  93.350  1.00  0.00     0.126 C 
ENDBRANCH  14  17
ENDBRANCH   1  11
BRANCH   1  20
HETATM   20  C   LIG     1      89.548  90.298  86.347  1.00  0.00    -0.014 A 
HETATM   21  C   LIG     1      90.360  89.277  85.810  1.00  0.00    -0.002 A 
HETATM   22  C   LIG     1      89.810  88.294  84.965  1.00  0.00     0.023 A 
HETATM   23  C   LIG     1      88.433  88.312  84.640  1.00  0.00     0.127 A 
HETATM   24  C   LIG     1      87.623  89.338  85.178  1.00  0.00     0.023 A 
HETATM   25  C   LIG     1      88.173  90.321  86.022  1.00  0.00    -0.002 A 
BRANCH  23  26
HETATM   26  N   LIG     1      87.855  87.282  83.754  1.00  0.00    -0.114 N 
HETATM   27  O   LIG     1      86.706  87.437  83.354  1.00  0.00    -0.532 OA
HETATM   28  O   LIG     1      88.550  86.316  83.456  1.00  0.00    -0.532 OA
ENDBRANCH  23  26
ENDBRANCH   1  20
TORSDOF 6
ENDMDL
MODEL 7
REMARK VINA RESULT:       0.0     10.006     11.987
REMARK  6 active torsions:
REMARK  status: ('A' for Active; 'I' for Inactive)
REMARK    1  A    between atoms: C_1  and  C_11 
REMARK    2  A    between atoms: C_1  and  C_20 
REMARK    3  A    between atoms: C_1  and  C_2 
REMARK    4  A    between atoms: C_5  and  N_8 
REMARK    5  A    between atoms: C_14  and  N_17 
REMARK    6  A    between atoms: C_23  and  N_26 
ROOT
HETATM    1  C   LIG     1      87.830  87.965  87.169  1.00  0.00     0.067 C 
ENDROOT
BRANCH   1   2
HETATM    2  C   LIG     1      88.930  87.134  87.830  1.00  0.00    -0.014 A 
HETATM    3  C   LIG     1      88.578  86.104  88.724  1.00  0.00    -0.002 A 
HETATM    4  C   LIG     1      89.572  85.327  89.350  1.00  0.00     0.017 A 
HETATM    5  C   LIG     1      90.947  85.558  89.101  1.00  0.00     0.056 A 
HETATM    6  C   LIG     1      91.289  86.598  88.201  1.00  0.00     0.017 A 
HETATM    7  C   LIG     1      90.296  87.375  87.574  1.00  0.00    -0.002 A 
BRANCH   5   8
HETATM    8  N   LIG     1      91.946  84.776  89.730  1.00  0.00    -0.344 N 
HETATM    9  C   LIG     1      93.306  84.762  89.204  1.00  0.00     0.126 C 
HETATM   10  C   LIG     1      91.624  83.980  90.909  1.00  0.00     0.126 C 
ENDBRANCH   5   8
ENDBRANCH   1   2
BRANCH   1  11
HETATM   11  C   LIG     1      88.239  89.411  86.889  1.00  0.00    -0.014 A 
HETATM   12  C   LIG     1      88.641  89.832  85.603  1.00  0.00    -0.002 A 
HETATM   13  C   LIG     1      89.009  91.171  85.372  1.00  0.00     0.017 A 
HETATM   14  C   LIG     1      88.983  92.130  86.416  1.00  0.00     0.056 A 
HETATM   15  C   LIG     1      88.575  91.694  87.701  1.00  0.00     0.017 A 
HETATM   16  C   LIG     1      88.208  90.356  87.934  1.00  0.00    -0.002 A 
BRANCH  14  17
HETATM   17  N   LIG     1      89.352  93.476  86.182  1.00  0.00    -0.344 N 
HETATM   18  C   LIG     1      90.332  93.803  85.153  1.00  0.00     0.126 C 
HETATM   19  C   LIG     1      88.754  94.549  86.968  1.00  0.00     0.126 C 
ENDBRANCH  14  17
ENDBRANCH   1  11
BRANCH   1  20
HETATM   20  C   LIG     1      87.175  87.273  85.974  1.00  0.00    -0.014 A 
HETATM   21  C   LIG     1      85.815  87.519  85.691  1.00  0.00    -0.002 A 
HETATM   22  C   LIG     1      85.185  86.891  84.599  1.00  0.00     0.023 A 
HETATM   23  C   LIG     1      85.903  86.001  83.767  1.00  0.00     0.127 A 
HETATM   24  C   LIG     1      87.265  85.754  84.055  1.00  0.00     0.023 A 
HETATM   25  C   LIG     1      87.895  86.382  85.146  1.00  0.00    -0.002 A 
BRANCH  23  26
HETATM   26  N   LIG     1      85.243  85.342  82.623  1.00  0.00    -0.114 N 
HETATM   27  O   LIG     1      85.868  84.486  82.005  1.00  0.00    -0.532 OA
HETATM   28  O   LIG     1      84.097  85.678  82.341  1.00  0.00    -0.532 OA
ENDBRANCH  23  26
ENDBRANCH   1  20
TORSDOF 6
ENDMDL
MODEL 8
REMARK VINA RESULT:       0.0      5.575      9.131
REMARK  6 active torsions:
REMARK  status: ('A' for Active; 'I' for Inactive)
REMARK    1  A    between atoms: C_1  and  C_11 
REMARK    2  A    between atoms: C_1  and  C_20 
REMARK    3  A    between atoms: C_1  and  C_2 
REMARK    4  A    between atoms: C_5  and  N_8 
REMARK    5  A    between atoms: C_14  and  N_17 
REMARK    6  A    between atoms: C_23  and  N_26 
ROOT
HETATM    1  C   LIG     1      94.483  86.149  92.205  1.00  0.00     0.067 C 
ENDROOT
BRANCH   1   2
HETATM    2  C   LIG     1      95.475  86.182  91.043  1.00  0.00    -0.014 A 
HETATM    3  C   LIG     1      95.268  87.083  89.980  1.00  0.00    -0.002 A 
HETATM    4  C   LIG     1      96.164  87.131  88.895  1.00  0.00     0.017 A 
HETATM    5  C   LIG     1      97.294  86.277  88.840  1.00  0.00     0.056 A 
HETATM    6  C   LIG     1      97.490  85.372  89.914  1.00  0.00     0.017 A 
HETATM    7  C   LIG     1      96.595  85.325  90.999  1.00  0.00    -0.002 A 
BRANCH   5   8
HETATM    8  N   LIG     1      98.195  86.325  87.749  1.00  0.00    -0.344 N 
HETATM    9  C   LIG     1      99.354  85.440  87.715  1.00  0.00     0.126 C 
HETATM   10  C   LIG     1      97.972  87.258  86.651  1.00  0.00     0.126 C 
ENDBRANCH   5   8
ENDBRANCH   1   2
BRANCH   1  11
HETATM   11  C   LIG     1      94.325  84.765  92.836  1.00  0.00    -0.014 A 
HETATM   12  C   LIG     1      94.978  84.419  94.039  1.00  0.00    -0.002 A 
HETATM   13  C   LIG     1      94.811  83.139  94.601  1.00  0.00     0.017 A 
HETATM   14  C   LIG     1      93.985  82.168  93.981  1.00  0.00     0.056 A 
HETATM   15  C   LIG     1      93.332  82.529  92.776  1.00  0.00     0.017 A 
HETATM   16  C   LIG     1      93.500  83.808  92.213  1.00  0.00    -0.002 A 
BRANCH  14  17
HETATM   17  N   LIG     1      93.818  80.881  94.547  1.00  0.00    -0.344 N 
HETATM   18  C   LIG     1      92.961  79.897  93.896  1.00  0.00     0.126 C 
HETATM   19  C   LIG     1      94.503  80.528  95.785  1.00  0.00     0.126 C 
ENDBRANCH  14  17
ENDBRANCH   1  11
BRANCH   1  20
HETATM   20  C   LIG     1      94.700  87.265  93.227  1.00  0.00    -0.014 A 
HETATM   21  C   LIG     1      93.590  87.796  93.918  1.00  0.00    -0.002 A 
HETATM   22  C   LIG     1      93.760  88.828  94.860  1.00  0.00     0.023 A 
HETATM   23  C   LIG     1      95.046  89.352  95.131  1.00  0.00     0.127 A 
HETATM   24  C   LIG     1      96.155  88.820  94.435  1.00  0.00     0.023 A 
HETATM   25  C   LIG     1      95.985  87.788  93.493  1.00  0.00    -0.002 A 
BRANCH  23  26
HETATM   26  N   LIG     1      95.225  90.435  96.118  1.00  0.00    -0.114 N 
HETATM   27  O   LIG     1      96.351  90.896  96.278  1.00  0.00    -0.532 OA
HETATM   28  O   LIG     1      94.240  90.828  96.734  1.00  0.00    -0.532 OA
ENDBRANCH  23  26
ENDBRANCH   1  20
TORSDOF 6
ENDMDL
MODEL 9
REMARK VINA RESULT:       0.0      8.386     12.824
REMARK  6 active torsions:
REMARK  status: ('A' for Active; 'I' for Inactive)
REMARK    1  A    between atoms: C_1  and  C_11 
REMARK    2  A    between atoms: C_1  and  C_20 
REMARK    3  A    between atoms: C_1  and  C_2 
REMARK    4  A    between atoms: C_5  and  N_8 
REMARK    5  A    between atoms: C_14  and  N_17 
REMARK    6  A    between atoms: C_23  and  N_26 
ROOT
HETATM    1  C   LIG     1      89.972  87.309  87.371  1.00  0.00     0.067 C 
ENDROOT
BRANCH   1   2
HETATM    2  C   LIG     1      90.754  88.580  87.040  1.00  0.00    -0.014 A 
HETATM    3  C   LIG     1      90.480  89.767  87.748  1.00  0.00    -0.002 A 
HETATM    4  C   LIG     1      91.183  90.953  87.460  1.00  0.00     0.017 A 
HETATM    5  C   LIG     1      92.179  90.987  86.453  1.00  0.00     0.056 A 
HETATM    6  C   LIG     1      92.444  89.788  85.745  1.00  0.00     0.017 A 
HETATM    7  C   LIG     1      91.743  88.602  86.033  1.00  0.00    -0.002 A 
BRANCH   5   8
HETATM    8  N   LIG     1      92.886  92.179  86.163  1.00  0.00    -0.344 N 
HETATM    9  C   LIG     1      94.143  92.127  85.425  1.00  0.00     0.126 C 
HETATM   10  C   LIG     1      92.363  93.469  86.599  1.00  0.00     0.126 C 
ENDBRANCH   5   8
ENDBRANCH   1   2
BRANCH   1  11
HETATM   11  C   LIG     1      89.761  86.389  86.168  1.00  0.00    -0.014 A 
HETATM   12  C   LIG     1      90.563  85.246  85.959  1.00  0.00    -0.002 A 
HETATM   13  C   LIG     1      90.344  84.413  84.846  1.00  0.00     0.017 A 
HETATM   14  C   LIG     1      89.317  84.694  83.910  1.00  0.00     0.056 A 
HETATM   15  C   LIG     1      88.518  85.843  84.133  1.00  0.00     0.017 A 
HETATM   16  C   LIG     1      88.736  86.677  85.245  1.00  0.00    -0.002 A 
BRANCH  14  17
HETATM   17  N   LIG     1      89.098  83.856  82.790  1.00  0.00    -0.344 N 
HETATM   18  C   LIG     1      88.013  84.141  81.858  1.00  0.00     0.126 C 
HETATM   19  C   LIG     1      89.957  82.701  82.557  1.00  0.00     0.126 C 
ENDBRANCH  14  17
ENDBRANCH   1  11
BRANCH   1  20
HETATM   20  C   LIG     1      90.484  86.582  88.614  1.00  0.00    -0.014 A 
HETATM   21  C   LIG     1      89.574  85.869  89.422  1.00  0.00    -0.002 A 
HETATM   22  C   LIG     1      90.017  85.195  90.577  1.00  0.00     0.023 A 
HETATM   23  C   LIG     1      91.382  85.221  90.947  1.00  0.00     0.127 A 
HETATM   24  C   LIG     1      92.290  85.939  90.136  1.00  0.00     0.023 A 
HETATM   25  C   LIG     1      91.847  86.613  88.983  1.00  0.00    -0.002 A 
BRANCH  23  26
HETATM   26  N   LIG     1      91.847  84.515  92.157  1.00  0.00    -0.114 N 
HETATM   27  O   LIG     1      91.156  83.602  92.599  1.00  0.00    -0.532 OA
HETATM   28  O   LIG     1      92.904  84.871  92.667  1.00  0.00    -0.532 OA
ENDBRANCH  23  26
ENDBRANCH   1  20
TORSDOF 6
ENDMDL
